@<TRIPOS>MOLECULE
3cs9.C
61 65 1 0 0 
SMALL
USER_CHARGES


@<TRIPOS>ATOM
  1 O17      0.9342    22.9948    34.9370 O.2   1 NIL  -0.5700 
  2 C16      2.0548    23.4404    34.8057 C.2   1 NIL   0.5438 
  3 N14      2.4961    24.0004    33.6827 N.am  1 NIL  -0.5470 
  4 H14      3.4172    24.4144    33.7028 H     1 NIL   0.3700 
  5 C11      1.7877    24.0640    32.4705 C.ar  1 NIL   0.1170 
  6 C9       2.5133    24.2584    31.3001 C.ar  1 NIL  -0.1500 
  7 H9       3.5903    24.3152    31.3582 H     1 NIL   0.1500 
  8 C8       1.8936    24.3837    30.0421 C.ar  1 NIL  -0.0230 
  9 N51      2.6702    24.5532    28.8747 N.pl3 1 NIL   0.3262 
 10 C56      3.8106    25.3825    28.7269 C.2   1 NIL  -0.3016 
 11 H56      4.2658    25.9964    29.4900 H     1 NIL   0.1500 
 12 C55      4.2252    25.2518    27.4176 C.2   1 NIL   0.0462 
 13 C58      5.4150    25.9387    26.7414 C.3   1 NIL  -0.0590 
 14 H581     5.9118    26.5932    27.4576 H     1 NIL   0.0800 
 15 H582     5.0616    26.5279    25.8952 H     1 NIL   0.0800 
 16 H583     6.1187    25.1841    26.3900 H     1 NIL   0.0800 
 17 N54      3.3895    24.3556    26.7689 N.2   1 NIL  -0.5653 
 18 C52      2.4645    23.9513    27.6689 C.2   1 NIL   0.0365 
 19 H52      1.6716    23.2481    27.4608 H     1 NIL   0.1500 
 20 C6       0.4956    24.3334    29.9778 C.ar  1 NIL  -0.1500 
 21 H6       0.0013    24.4164    29.0212 H     1 NIL   0.1500 
 22 C12      0.3765    24.0709    32.3928 C.ar  1 NIL  -0.1500 
 23 H12     -0.2077    23.9954    33.2980 H     1 NIL   0.1500 
 24 C5      -0.2758    24.1749    31.1533 C.ar  1 NIL  -0.1435 
 25 C2      -1.7829    24.1172    31.0861 C.3   1 NIL   1.1635 
 26 F4      -2.3539    24.9549    31.9966 F     1 NIL  -0.3400 
 27 F3      -2.2114    24.4646    29.8409 F     1 NIL  -0.3400 
 28 F1      -2.2749    22.8820    31.3486 F     1 NIL  -0.3400 
 29 C18      2.9339    23.5541    36.0135 C.ar  1 NIL   0.0862 
 30 C25      4.2299    24.1230    36.0463 C.ar  1 NIL  -0.1500 
 31 H25      4.6796    24.4469    35.1194 H     1 NIL   0.1500 
 32 C23      4.9535    24.2818    37.2429 C.ar  1 NIL  -0.1500 
 33 H23      5.9371    24.7274    37.2310 H     1 NIL   0.1500 
 34 C22      4.3767    23.8500    38.4647 C.ar  1 NIL  -0.1435 
 35 C27      5.2294    24.0166    39.6811 C.3   1 NIL  -0.0965 
 36 H271     6.2023    24.4137    39.3913 H     1 NIL   0.0800 
 37 H272     5.3617    23.0500    40.1672 H     1 NIL   0.0800 
 38 H273     4.7461    24.7075    40.3718 H     1 NIL   0.0800 
 39 C21      3.0432    23.3537    38.4733 C.ar  1 NIL   0.1000 
 40 C19      2.3713    23.2002    37.2598 C.ar  1 NIL  -0.1500 
 41 H19      1.3721    22.7906    37.2743 H     1 NIL   0.1500 
 42 N31      2.4339    22.7460    39.5874 N.pl3 1 NIL  -0.6000 
 43 H31      1.8952    23.2976    40.2397 H     1 NIL   0.4000 
 44 C33      2.5834    21.3724    39.7791 C.ar  1 NIL   0.7200 
 45 N40      3.2176    20.4810    39.0475 N.ar  1 NIL  -0.6200 
 46 C38      3.2021    19.2074    39.4941 C.ar  1 NIL   0.1600 
 47 H38      3.7303    18.4515    38.9319 H     1 NIL   0.1500 
 48 C36      2.5506    18.8461    40.6167 C.ar  1 NIL  -0.1500 
 49 H36      2.5377    17.8124    40.9293 H     1 NIL   0.1500 
 50 C35      1.9143    19.7851    41.3476 C.ar  1 NIL   0.3100 
 51 N34      1.9133    21.0445    40.9088 N.ar  1 NIL  -0.6200 
 52 C41      1.1286    19.4682    42.5847 C.ar  1 NIL   0.0000 
 53 C49      1.0620    18.1659    43.0951 C.ar  1 NIL  -0.1500 
 54 H49      1.5812    17.3642    42.5911 H     1 NIL   0.1500 
 55 C47      0.3171    17.8946    44.2692 C.ar  1 NIL  -0.1500 
 56 H47      0.2817    16.8985    44.6850 H     1 NIL   0.1500 
 57 C45     -0.3594    18.9319    44.8653 C.ar  1 NIL   0.1600 
 58 H45     -0.9189    18.7351    45.7679 H     1 NIL   0.1500 
 59 N44     -0.3525    20.1881    44.3674 N.ar  1 NIL  -0.6200 
 60 C42      0.3720    20.4222    43.2569 C.ar  1 NIL   0.1600 
 61 H42      0.3650    21.4259    42.8582 H     1 NIL   0.1500 
@<TRIPOS>BOND
  1   1   2  2   
  2   2   3  am  
  3   2  29  1   
  4   3   4  1   
  5   3   5  1   
  6   5   6  ar  
  7   5  22  ar  
  8   6   7  1   
  9   6   8  ar  
 10   8   9  1   
 11   8  20  ar  
 12   9  10  1   
 13   9  18  1   
 14  10  11  1   
 15  10  12  2   
 16  12  13  1   
 17  12  17  1   
 18  13  14  1   
 19  13  15  1   
 20  13  16  1   
 21  17  18  2   
 22  18  19  1   
 23  20  21  1   
 24  20  24  ar  
 25  22  23  1   
 26  22  24  ar  
 27  24  25  1   
 28  25  26  1   
 29  25  27  1   
 30  25  28  1   
 31  29  30  ar  
 32  29  40  ar  
 33  30  31  1   
 34  30  32  ar  
 35  32  33  1   
 36  32  34  ar  
 37  34  35  1   
 38  34  39  ar  
 39  35  36  1   
 40  35  37  1   
 41  35  38  1   
 42  39  40  ar  
 43  39  42  1   
 44  40  41  1   
 45  42  43  1   
 46  42  44  1   
 47  44  45  ar  
 48  44  51  ar  
 49  45  46  ar  
 50  46  47  1   
 51  46  48  ar  
 52  48  49  1   
 53  48  50  ar  
 54  50  51  ar  
 55  50  52  1   
 56  52  53  ar  
 57  52  60  ar  
 58  53  54  1   
 59  53  55  ar  
 60  55  56  1   
 61  55  57  ar  
 62  57  58  1   
 63  57  59  ar  
 64  59  60  ar  
 65  60  61  1   
@<TRIPOS>SUBSTRUCTURE
  1 NIL   2 GROUP 4 C **** 0

# MOE 2012.10 (io_trps.svl 2012.10)
