@<TRIPOS>MOLECULE
3cs9.C
189 126 63 0 0 
SMALL
USER_CHARGES


@<TRIPOS>ATOM
  1 O       -4.9595     9.8547    33.5640 O.3    1 HOH   0.0000 
  2 H1      -3.9995     9.8547    33.5640 H      1 HOH   0.0000 
  3 H2      -5.2498    10.5017    34.2111 H      1 HOH   0.0000 
  4 O        4.9745    21.4588    34.2672 O.3    2 HOH  -0.8340 
  5 H1       5.0099    22.2895    33.7930 H      2 HOH   0.4170 
  6 H2       4.1113    21.1008    34.0601 H      2 HOH   0.4170 
  7 O      -19.7497     3.7421    42.4030 O.3    3 HOH   0.0000 
  8 H1     -18.7897     3.7421    42.4030 H      3 HOH   0.0000 
  9 H2     -20.0400     4.3891    43.0500 H      3 HOH   0.0000 
 10 O      -12.2210     4.5625    46.4396 O.3    4 HOH   0.0000 
 11 H1     -11.2610     4.5625    46.4396 H      4 HOH   0.0000 
 12 H2     -12.5112     5.2096    47.0866 H      4 HOH   0.0000 
 13 O        4.8590    20.6046    36.7441 O.3    5 HOH  -0.8340 
 14 H1       4.1472    21.0470    37.2066 H      5 HOH   0.4170 
 15 H2       4.9114    21.0524    35.8997 H      5 HOH   0.4170 
 16 O        4.7739    22.5264    53.3098 O.3    6 HOH   0.0000 
 17 H1       5.7339    22.5264    53.3098 H      6 HOH   0.0000 
 18 H2       4.4837    23.1734    53.9568 H      6 HOH   0.0000 
 19 O       -5.1958    16.5233    24.7897 O.3    7 HOH   0.0000 
 20 H1      -4.2358    16.5233    24.7897 H      7 HOH   0.0000 
 21 H2      -5.4860    17.1704    25.4367 H      7 HOH   0.0000 
 22 O      -20.2754     9.7801    53.0630 O.3    8 HOH   0.0000 
 23 H1     -19.3154     9.7801    53.0630 H      8 HOH   0.0000 
 24 H2     -20.5657    10.4272    53.7101 H      8 HOH   0.0000 
 25 O      -13.4078    11.5195    49.3171 O.3    9 HOH   0.0000 
 26 H1     -12.4478    11.5195    49.3171 H      9 HOH   0.0000 
 27 H2     -13.6981    12.1665    49.9641 H      9 HOH   0.0000 
 28 O       -7.6814    12.8852    15.1777 O.3   10 HOH   0.0000 
 29 H1      -6.7214    12.8852    15.1777 H     10 HOH   0.0000 
 30 H2      -7.9717    13.5323    15.8247 H     10 HOH   0.0000 
 31 O      -13.0536     4.8436    43.9770 O.3   11 HOH   0.0000 
 32 H1     -12.0936     4.8436    43.9770 H     11 HOH   0.0000 
 33 H2     -13.3439     5.4906    44.6240 H     11 HOH   0.0000 
 34 O      -20.8800     4.7341    44.4816 O.3   12 HOH   0.0000 
 35 H1     -19.9200     4.7341    44.4816 H     12 HOH   0.0000 
 36 H2     -21.1702     5.3812    45.1286 H     12 HOH   0.0000 
 37 O      -24.0175    10.2303    47.5774 O.3   13 HOH   0.0000 
 38 H1     -23.0575    10.2303    47.5774 H     13 HOH   0.0000 
 39 H2     -24.3077    10.8773    48.2245 H     13 HOH   0.0000 
 40 O       -4.3483     5.4069    43.5424 O.3   14 HOH   0.0000 
 41 H1      -3.3883     5.4069    43.5424 H     14 HOH   0.0000 
 42 H2      -4.6385     6.0540    44.1894 H     14 HOH   0.0000 
 43 O       -4.7008    12.6897    44.5386 O.3   15 HOH   0.0000 
 44 H1      -3.7408    12.6897    44.5386 H     15 HOH   0.0000 
 45 H2      -4.9911    13.3367    45.1857 H     15 HOH   0.0000 
 46 O        5.4722    10.0354    42.8877 O.3   16 HOH   0.0000 
 47 H1       6.4322    10.0354    42.8877 H     16 HOH   0.0000 
 48 H2       5.1819    10.6825    43.5348 H     16 HOH   0.0000 
 49 O      -10.3823    28.7709    41.0482 O.3   17 HOH   0.0000 
 50 H1      -9.4223    28.7709    41.0482 H     17 HOH   0.0000 
 51 H2     -10.6725    29.4180    41.6952 H     17 HOH   0.0000 
 52 O       -0.8846    27.1662    47.3940 O.3   18 HOH   0.0000 
 53 H1       0.0754    27.1662    47.3940 H     18 HOH   0.0000 
 54 H2      -1.1749    27.8133    48.0410 H     18 HOH   0.0000 
 55 O      -12.1143    18.1674    47.2714 O.3   19 HOH   0.0000 
 56 H1     -11.1543    18.1674    47.2714 H     19 HOH   0.0000 
 57 H2     -12.4046    18.8144    47.9185 H     19 HOH   0.0000 
 58 O       -5.4939    23.5460    47.4710 O.3   20 HOH   0.0000 
 59 H1      -4.5339    23.5460    47.4710 H     20 HOH   0.0000 
 60 H2      -5.7841    24.1930    48.1180 H     20 HOH   0.0000 
 61 O       -3.4754    12.5515    27.1025 O.3   21 HOH   0.0000 
 62 H1      -2.5154    12.5515    27.1025 H     21 HOH   0.0000 
 63 H2      -3.7656    13.1986    27.7495 H     21 HOH   0.0000 
 64 O       -2.3019    -3.5779    24.4165 O.3   22 HOH   0.0000 
 65 H1      -1.3419    -3.5779    24.4165 H     22 HOH   0.0000 
 66 H2      -2.5922    -2.9308    25.0636 H     22 HOH   0.0000 
 67 O      -11.1153     3.1704    40.6435 O.3   23 HOH   0.0000 
 68 H1     -10.1553     3.1704    40.6435 H     23 HOH   0.0000 
 69 H2     -11.4055     3.8175    41.2905 H     23 HOH   0.0000 
 70 O       13.8802    30.2073    52.5305 O.3   24 HOH   0.0000 
 71 H1      14.8402    30.2073    52.5305 H     24 HOH   0.0000 
 72 H2      13.5899    30.8544    53.1775 H     24 HOH   0.0000 
 73 O      -29.1288    24.3576    34.6748 O.3   25 HOH   0.0000 
 74 H1     -28.1688    24.3576    34.6748 H     25 HOH   0.0000 
 75 H2     -29.4191    25.0046    35.3218 H     25 HOH   0.0000 
 76 O       -1.7712    33.1672    37.5634 O.3   26 HOH   0.0000 
 77 H1      -0.8112    33.1672    37.5634 H     26 HOH   0.0000 
 78 H2      -2.0615    33.8143    38.2104 H     26 HOH   0.0000 
 79 O      -22.5607    12.5772    36.8770 O.3   27 HOH   0.0000 
 80 H1     -21.6007    12.5772    36.8770 H     27 HOH   0.0000 
 81 H2     -22.8510    13.2242    37.5240 H     27 HOH   0.0000 
 82 O       -4.1718    16.9724    21.6776 O.3   28 HOH   0.0000 
 83 H1      -3.2118    16.9724    21.6776 H     28 HOH   0.0000 
 84 H2      -4.4621    17.6195    22.3246 H     28 HOH   0.0000 
 85 O      -10.1083    11.4886    12.2617 O.3   29 HOH   0.0000 
 86 H1      -9.1483    11.4886    12.2617 H     29 HOH   0.0000 
 87 H2     -10.3986    12.1356    12.9087 H     29 HOH   0.0000 
 88 O       -6.7009    29.3321    39.1192 O.3   30 HOH   0.0000 
 89 H1      -5.7409    29.3321    39.1192 H     30 HOH   0.0000 
 90 H2      -6.9912    29.9791    39.7662 H     30 HOH   0.0000 
 91 O       -6.8071     5.9043    33.9471 O.3   31 HOH   0.0000 
 92 H1      -5.8471     5.9043    33.9471 H     31 HOH   0.0000 
 93 H2      -7.0974     6.5514    34.5941 H     31 HOH   0.0000 
 94 O       -2.9679     7.7418    33.5215 O.3   32 HOH   0.0000 
 95 H1      -2.0079     7.7418    33.5215 H     32 HOH   0.0000 
 96 H2      -3.2582     8.3889    34.1686 H     32 HOH   0.0000 
 97 O        8.5164    37.7831    45.8990 O.3   33 HOH   0.0000 
 98 H1       9.4764    37.7831    45.8990 H     33 HOH   0.0000 
 99 H2       8.2261    38.4301    46.5460 H     33 HOH   0.0000 
100 O      -22.8985    15.7522    45.9792 O.3   34 HOH   0.0000 
101 H1     -21.9385    15.7522    45.9792 H     34 HOH   0.0000 
102 H2     -23.1888    16.3993    46.6262 H     34 HOH   0.0000 
103 O        4.8293    35.7075    28.3651 O.3   35 HOH   0.0000 
104 H1       5.7893    35.7075    28.3651 H     35 HOH   0.0000 
105 H2       4.5390    36.3545    29.0122 H     35 HOH   0.0000 
106 O      -15.9463     6.1523    13.3745 O.3   36 HOH   0.0000 
107 H1     -14.9863     6.1523    13.3745 H     36 HOH   0.0000 
108 H2     -16.2366     6.7993    14.0216 H     36 HOH   0.0000 
109 O       10.3233    33.7396    33.2702 O.3   37 HOH   0.0000 
110 H1      11.2833    33.7396    33.2702 H     37 HOH   0.0000 
111 H2      10.0330    34.3866    33.9173 H     37 HOH   0.0000 
112 O      -22.9997    19.1722    39.5647 O.3   38 HOH   0.0000 
113 H1     -22.0397    19.1722    39.5647 H     38 HOH   0.0000 
114 H2     -23.2900    19.8192    40.2117 H     38 HOH   0.0000 
115 O       13.6178    37.0155    52.0576 O.3   39 HOH   0.0000 
116 H1      14.5778    37.0155    52.0576 H     39 HOH   0.0000 
117 H2      13.3275    37.6625    52.7046 H     39 HOH   0.0000 
118 O       13.5633    36.2937    40.7344 O.3   40 HOH   0.0000 
119 H1      14.5233    36.2937    40.7344 H     40 HOH   0.0000 
120 H2      13.2731    36.9407    41.3814 H     40 HOH   0.0000 
121 O       -1.0438    26.4281    52.4006 O.3   41 HOH   0.0000 
122 H1      -0.0838    26.4281    52.4006 H     41 HOH   0.0000 
123 H2      -1.3341    27.0751    53.0476 H     41 HOH   0.0000 
124 O       10.6972    32.9806    30.5200 O.3   42 HOH   0.0000 
125 H1      11.6572    32.9806    30.5200 H     42 HOH   0.0000 
126 H2      10.4069    33.6276    31.1671 H     42 HOH   0.0000 
127 O       -8.8733    21.6000    15.7107 O.3   43 HOH   0.0000 
128 H1      -7.9133    21.6000    15.7107 H     43 HOH   0.0000 
129 H2      -9.1636    22.2470    16.3577 H     43 HOH   0.0000 
130 O      -22.0079     7.5628    44.7855 O.3   44 HOH   0.0000 
131 H1     -21.0479     7.5628    44.7855 H     44 HOH   0.0000 
132 H2     -22.2982     8.2098    45.4325 H     44 HOH   0.0000 
133 O        6.9353    30.5951    25.7502 O.3   45 HOH  -0.8340 
134 H1       6.8486    30.0501    26.5323 H     45 HOH   0.4170 
135 H2       6.5467    31.4341    25.9980 H     45 HOH   0.4170 
136 O       -4.5469     5.1240    33.7744 O.3   46 HOH   0.0000 
137 H1      -3.5869     5.1240    33.7744 H     46 HOH   0.0000 
138 H2      -4.8371     5.7711    34.4215 H     46 HOH   0.0000 
139 O       -9.0304    30.8158    18.5256 O.3   47 HOH   0.0000 
140 H1      -8.0704    30.8158    18.5256 H     47 HOH   0.0000 
141 H2      -9.3207    31.4629    19.1726 H     47 HOH   0.0000 
142 O       13.1323    29.0977    54.5888 O.3   48 HOH   0.0000 
143 H1      14.0923    29.0977    54.5888 H     48 HOH   0.0000 
144 H2      12.8420    29.7447    55.2359 H     48 HOH   0.0000 
145 O      -24.1321     8.2411    45.7286 O.3   49 HOH   0.0000 
146 H1     -23.1721     8.2411    45.7286 H     49 HOH   0.0000 
147 H2     -24.4224     8.8882    46.3756 H     49 HOH   0.0000 
148 O        7.4982    37.3977    48.6863 O.3   50 HOH   0.0000 
149 H1       8.4582    37.3977    48.6863 H     50 HOH   0.0000 
150 H2       7.2079    38.0448    49.3333 H     50 HOH   0.0000 
151 O      -12.4256    -1.7432    13.6666 O.3   51 HOH   0.0000 
152 H1     -11.4656    -1.7432    13.6666 H     51 HOH   0.0000 
153 H2     -12.7159    -1.0961    14.3136 H     51 HOH   0.0000 
154 O       15.6795    34.8172    40.1815 O.3   52 HOH   0.0000 
155 H1      16.6395    34.8172    40.1815 H     52 HOH   0.0000 
156 H2      15.3892    35.4642    40.8286 H     52 HOH   0.0000 
157 O      -22.1177    20.5985    37.8552 O.3   53 HOH   0.0000 
158 H1     -21.1577    20.5985    37.8552 H     53 HOH   0.0000 
159 H2     -22.4079    21.2455    38.5023 H     53 HOH   0.0000 
160 O       -4.8114    30.1335    35.9154 O.3   54 HOH   0.0000 
161 H1      -3.8514    30.1335    35.9154 H     54 HOH   0.0000 
162 H2      -5.1017    30.7806    36.5624 H     54 HOH   0.0000 
163 O        5.5211    42.7285    53.4836 O.3   55 HOH   0.0000 
164 H1       6.4811    42.7285    53.4836 H     55 HOH   0.0000 
165 H2       5.2308    43.3755    54.1306 H     55 HOH   0.0000 
166 O        4.8735    16.5108    49.7316 O.3   56 HOH   0.0000 
167 H1       5.8335    16.5108    49.7316 H     56 HOH   0.0000 
168 H2       4.5833    17.1578    50.3786 H     56 HOH   0.0000 
169 O      -10.3020     2.6751    43.1673 O.3   57 HOH   0.0000 
170 H1      -9.3420     2.6751    43.1673 H     57 HOH   0.0000 
171 H2     -10.5923     3.3222    43.8143 H     57 HOH   0.0000 
172 O      -18.8090    20.4481    45.2176 O.3   58 HOH   0.0000 
173 H1     -17.8490    20.4481    45.2176 H     58 HOH   0.0000 
174 H2     -19.0993    21.0951    45.8646 H     58 HOH   0.0000 
175 O      -20.5855    19.0928    43.4769 O.3   59 HOH   0.0000 
176 H1     -19.6255    19.0928    43.4769 H     59 HOH   0.0000 
177 H2     -20.8758    19.7398    44.1240 H     59 HOH   0.0000 
178 O        9.7782    27.9892    56.5363 O.3   60 HOH   0.0000 
179 H1      10.7382    27.9892    56.5363 H     60 HOH   0.0000 
180 H2       9.4880    28.6362    57.1833 H     60 HOH   0.0000 
181 O      -19.7507    27.8043    26.8378 O.3   61 HOH   0.0000 
182 H1     -18.7907    27.8043    26.8378 H     61 HOH   0.0000 
183 H2     -20.0410    28.4514    27.4848 H     61 HOH   0.0000 
184 O       -1.4634    30.4954    35.7196 O.3   62 HOH   0.0000 
185 H1      -0.5034    30.4954    35.7196 H     62 HOH   0.0000 
186 H2      -1.7536    31.1424    36.3666 H     62 HOH   0.0000 
187 O       -5.1434    32.0089    37.9863 O.3   63 HOH   0.0000 
188 H1      -4.1834    32.0089    37.9863 H     63 HOH   0.0000 
189 H2      -5.4337    32.6560    38.6333 H     63 HOH   0.0000 
@<TRIPOS>BOND
  1   1   2  1   
  2   1   3  1   
  3   4   5  1   
  4   4   6  1   
  5   7   8  1   
  6   7   9  1   
  7  10  11  1   
  8  10  12  1   
  9  13  14  1   
 10  13  15  1   
 11  16  17  1   
 12  16  18  1   
 13  19  20  1   
 14  19  21  1   
 15  22  23  1   
 16  22  24  1   
 17  25  26  1   
 18  25  27  1   
 19  28  29  1   
 20  28  30  1   
 21  31  32  1   
 22  31  33  1   
 23  34  35  1   
 24  34  36  1   
 25  37  38  1   
 26  37  39  1   
 27  40  41  1   
 28  40  42  1   
 29  43  44  1   
 30  43  45  1   
 31  46  47  1   
 32  46  48  1   
 33  49  50  1   
 34  49  51  1   
 35  52  53  1   
 36  52  54  1   
 37  55  56  1   
 38  55  57  1   
 39  58  59  1   
 40  58  60  1   
 41  61  62  1   
 42  61  63  1   
 43  64  65  1   
 44  64  66  1   
 45  67  68  1   
 46  67  69  1   
 47  70  71  1   
 48  70  72  1   
 49  73  74  1   
 50  73  75  1   
 51  76  77  1   
 52  76  78  1   
 53  79  80  1   
 54  79  81  1   
 55  82  83  1   
 56  82  84  1   
 57  85  86  1   
 58  85  87  1   
 59  88  89  1   
 60  88  90  1   
 61  91  92  1   
 62  91  93  1   
 63  94  95  1   
 64  94  96  1   
 65  97  98  1   
 66  97  99  1   
 67 100 101  1   
 68 100 102  1   
 69 103 104  1   
 70 103 105  1   
 71 106 107  1   
 72 106 108  1   
 73 109 110  1   
 74 109 111  1   
 75 112 113  1   
 76 112 114  1   
 77 115 116  1   
 78 115 117  1   
 79 118 119  1   
 80 118 120  1   
 81 121 122  1   
 82 121 123  1   
 83 124 125  1   
 84 124 126  1   
 85 127 128  1   
 86 127 129  1   
 87 130 131  1   
 88 130 132  1   
 89 133 134  1   
 90 133 135  1   
 91 136 137  1   
 92 136 138  1   
 93 139 140  1   
 94 139 141  1   
 95 142 143  1   
 96 142 144  1   
 97 145 146  1   
 98 145 147  1   
 99 148 149  1   
100 148 150  1   
101 151 152  1   
102 151 153  1   
103 154 155  1   
104 154 156  1   
105 157 158  1   
106 157 159  1   
107 160 161  1   
108 160 162  1   
109 163 164  1   
110 163 165  1   
111 166 167  1   
112 166 168  1   
113 169 170  1   
114 169 171  1   
115 172 173  1   
116 172 174  1   
117 175 176  1   
118 175 177  1   
119 178 179  1   
120 178 180  1   
121 181 182  1   
122 181 183  1   
123 184 185  1   
124 184 186  1   
125 187 188  1   
126 187 189  1   
@<TRIPOS>SUBSTRUCTURE
  1 HOH   1 GROUP 4 C **** 0
  2 HOH   4 GROUP 4 C **** 0
  3 HOH   7 GROUP 4 C **** 0
  4 HOH  10 GROUP 4 C **** 0
  5 HOH  13 GROUP 4 C **** 0
  6 HOH  16 GROUP 4 C **** 0
  7 HOH  19 GROUP 4 C **** 0
  8 HOH  22 GROUP 4 C **** 0
  9 HOH  25 GROUP 4 C **** 0
 10 HOH  28 GROUP 4 C **** 0
 11 HOH  31 GROUP 4 C **** 0
 12 HOH  34 GROUP 4 C **** 0
 13 HOH  37 GROUP 4 C **** 0
 14 HOH  40 GROUP 4 C **** 0
 15 HOH  43 GROUP 4 C **** 0
 16 HOH  46 GROUP 4 C **** 0
 17 HOH  49 GROUP 4 C **** 0
 18 HOH  52 GROUP 4 C **** 0
 19 HOH  55 GROUP 4 C **** 0
 20 HOH  58 GROUP 4 C **** 0
 21 HOH  61 GROUP 4 C **** 0
 22 HOH  64 GROUP 4 C **** 0
 23 HOH  67 GROUP 4 C **** 0
 24 HOH  70 GROUP 4 C **** 0
 25 HOH  73 GROUP 4 C **** 0
 26 HOH  76 GROUP 4 C **** 0
 27 HOH  79 GROUP 4 C **** 0
 28 HOH  82 GROUP 4 C **** 0
 29 HOH  85 GROUP 4 C **** 0
 30 HOH  88 GROUP 4 C **** 0
 31 HOH  91 GROUP 4 C **** 0
 32 HOH  94 GROUP 4 C **** 0
 33 HOH  97 GROUP 4 C **** 0
 34 HOH 100 GROUP 4 C **** 0
 35 HOH 103 GROUP 4 C **** 0
 36 HOH 106 GROUP 4 C **** 0
 37 HOH 109 GROUP 4 C **** 0
 38 HOH 112 GROUP 4 C **** 0
 39 HOH 115 GROUP 4 C **** 0
 40 HOH 118 GROUP 4 C **** 0
 41 HOH 121 GROUP 4 C **** 0
 42 HOH 124 GROUP 4 C **** 0
 43 HOH 127 GROUP 4 C **** 0
 44 HOH 130 GROUP 4 C **** 0
 45 HOH 133 GROUP 4 C **** 0
 46 HOH 136 GROUP 4 C **** 0
 47 HOH 139 GROUP 4 C **** 0
 48 HOH 142 GROUP 4 C **** 0
 49 HOH 145 GROUP 4 C **** 0
 50 HOH 148 GROUP 4 C **** 0
 51 HOH 151 GROUP 4 C **** 0
 52 HOH 154 GROUP 4 C **** 0
 53 HOH 157 GROUP 4 C **** 0
 54 HOH 160 GROUP 4 C **** 0
 55 HOH 163 GROUP 4 C **** 0
 56 HOH 166 GROUP 4 C **** 0
 57 HOH 169 GROUP 4 C **** 0
 58 HOH 172 GROUP 4 C **** 0
 59 HOH 175 GROUP 4 C **** 0
 60 HOH 178 GROUP 4 C **** 0
 61 HOH 181 GROUP 4 C **** 0
 62 HOH 184 GROUP 4 C **** 0
 63 HOH 187 GROUP 4 C **** 0

# MOE 2012.10 (io_trps.svl 2012.10)
