@<TRIPOS>MOLECULE
4zog.A
26 24 2 0 0 
SMALL
USER_CHARGES


@<TRIPOS>ATOM
  1 O1      -4.3635     3.3744    27.6072 O.3   1 MXE  -0.6800 
  2 H1      -4.2097     2.6903    26.9515 H     1 MXE   0.4000 
  3 C1      -3.2206     3.4516    28.4158 C.3   1 MXE   0.1200 
  4 H11     -3.4918     3.2405    29.4502 H     1 MXE   0.0800 
  5 H12     -2.7946     4.4527    28.3489 H     1 MXE   0.0800 
  6 C2      -2.2041     2.4388    27.9446 C.3   1 MXE   0.1200 
  7 H21     -2.7184     1.5394    27.6061 H     1 MXE   0.0800 
  8 H22     -1.5350     2.1868    28.7673 H     1 MXE   0.0800 
  9 O2      -1.4546     2.9799    26.8791 O.3   1 MXE  -0.5600 
 10 C3      -0.2578     2.2698    26.6335 C.3   1 MXE   0.0400 
 11 H31      0.2755     2.7328    25.8033 H     1 MXE   0.0800 
 12 H32     -0.4938     1.2357    26.3823 H     1 MXE   0.0800 
 13 H33      0.3681     2.2931    27.5256 H     1 MXE   0.0800 
 14 O1      -1.7072     2.4720    11.1219 O.3   2 MXE  -0.6800 
 15 H1      -2.0686     3.0070    11.8323 H     2 MXE   0.4000 
 16 C1      -1.6303     1.1424    11.5861 C.3   2 MXE   0.1200 
 17 H11     -1.2228     0.5070    10.7998 H     2 MXE   0.0800 
 18 H12     -2.6277     0.7940    11.8545 H     2 MXE   0.0800 
 19 C2      -0.7313     1.0785    12.8011 C.3   2 MXE   0.1200 
 20 H21      0.1081     1.7606    12.6664 H     2 MXE   0.0800 
 21 H22     -0.3574     0.0617    12.9213 H     2 MXE   0.0800 
 22 O2      -1.4572     1.4504    13.9540 O.3   2 MXE  -0.5600 
 23 C3      -0.7268     1.3220    15.1556 C.3   2 MXE   0.0400 
 24 H31     -1.3519     1.6263    15.9951 H     2 MXE   0.0800 
 25 H32      0.1581     1.9570    15.1126 H     2 MXE   0.0800 
 26 H33     -0.4227     0.2835    15.2868 H     2 MXE   0.0800 
@<TRIPOS>BOND
  1   1   2  1   
  2   1   3  1   
  3   3   4  1   
  4   3   5  1   
  5   3   6  1   
  6   6   7  1   
  7   6   8  1   
  8   6   9  1   
  9   9  10  1   
 10  10  11  1   
 11  10  12  1   
 12  10  13  1   
 13  14  15  1   
 14  14  16  1   
 15  16  17  1   
 16  16  18  1   
 17  16  19  1   
 18  19  20  1   
 19  19  21  1   
 20  19  22  1   
 21  22  23  1   
 22  23  24  1   
 23  23  25  1   
 24  23  26  1   
@<TRIPOS>SUBSTRUCTURE
  1 MXE   6 GROUP 4 A1 **** 0
  2 MXE  19 GROUP 4 A2 **** 0

# MOE 2012.10 (io_trps.svl 2012.10)
