@<TRIPOS>MOLECULE
4zog.A
75 78 2 0 0 
SMALL
USER_CHARGES


@<TRIPOS>ATOM
  1 N1      -3.9158    13.3578    48.8133 N.4   1 VX6  -0.9590 
  2 H1      -4.5464    13.2843    48.0278 H     1 VX6   0.4500 
  3 C2      -3.7264    14.7786    49.1538 C.3   1 VX6   0.3430 
  4 H21     -2.9904    14.8652    49.9532 H     1 VX6   0.0800 
  5 H22     -4.6745    15.2019    49.4854 H     1 VX6   0.0800 
  6 C3      -3.2335    15.5369    47.9250 C.3   1 VX6   0.2091 
  7 H31     -3.0149    16.5683    48.2019 H     1 VX6   0.0800 
  8 H32     -4.0081    15.5229    47.1583 H     1 VX6   0.0800 
  9 N4      -2.0097    14.9047    47.3936 N.pl3 1 VX6  -0.8382 
 10 C5      -2.1408    13.4481    47.1795 C.3   1 VX6   0.2091 
 11 H51     -1.1732    13.0364    46.8925 H     1 VX6   0.0800 
 12 H52     -2.8643    13.2631    46.3855 H     1 VX6   0.0800 
 13 C6      -2.6143    12.7781    48.4595 C.3   1 VX6   0.3430 
 14 H61     -2.7174    11.7047    48.3001 H     1 VX6   0.0800 
 15 H62     -1.8974    12.9593    49.2602 H     1 VX6   0.0800 
 16 C7      -4.5206    12.6221    49.9393 C.3   1 VX6   0.2630 
 17 H71     -5.4846    13.0661    50.1874 H     1 VX6   0.0800 
 18 H72     -3.8612    12.6775    50.8055 H     1 VX6   0.0800 
 19 H73     -4.6628    11.5789    49.6571 H     1 VX6   0.0800 
 20 C8      -1.4964    15.5268    46.2247 C.ar  1 VX6   0.4100 
 21 C9      -1.5871    16.9061    46.0195 C.ar  1 VX6  -0.1500 
 22 H9      -2.0948    17.5381    46.7330 H     1 VX6   0.1500 
 23 C10     -1.0071    17.4488    44.8722 C.ar  1 VX6   0.4100 
 24 N11     -0.3766    16.6517    43.9830 N.ar  1 VX6  -0.6200 
 25 C12     -0.2994    15.3154    44.1891 C.ar  1 VX6   0.7215 
 26 N13     -0.8463    14.7697    45.3055 N.ar  1 VX6  -0.6200 
 27 N14     -1.0924    18.7728    44.6529 N.pl3 1 VX6  -0.5840 
 28 H14     -1.6741    19.3135    45.2769 H     1 VX6   0.4000 
 29 C15     -0.4560    19.4351    43.6575 C.2   1 VX6  -0.0676 
 30 C17      0.3207    19.1087    42.5420 C.2   1 VX6  -0.1500 
 31 H17      0.6203    18.1307    42.1955 H     1 VX6   0.1500 
 32 C18      0.6139    20.3496    41.9871 C.2   1 VX6   0.1078 
 33 N19      0.0583    21.3474    42.6983 N.2   1 VX6  -0.7068 
 34 N20     -0.6224    20.7548    43.7690 N.pl3 1 VX6   0.2996 
 35 H20     -1.1415    21.2354    44.4899 H     1 VX6   0.2700 
 36 C21      1.4672    20.3741    40.7409 C.3   1 VX6  -0.0590 
 37 H211     1.7292    19.3541    40.4598 H     1 VX6   0.0800 
 38 H212     2.3767    20.9427    40.9344 H     1 VX6   0.0800 
 39 H213     0.9113    20.8433    39.9291 H     1 VX6   0.0800 
 40 S23      0.5219    14.2997    43.0907 S.3   1 VX6  -0.2030 
 41 C24      1.2994    15.3140    41.9476 C.ar  1 VX6   0.1015 
 42 C25      0.9325    15.2354    40.5968 C.ar  1 VX6  -0.1500 
 43 H25      0.1577    14.5471    40.2930 H     1 VX6   0.1500 
 44 C26      1.5592    16.0391    39.6377 C.ar  1 VX6  -0.1500 
 45 H26      1.2685    15.9566    38.6008 H     1 VX6   0.1500 
 46 C27      2.5537    16.9447    40.0037 C.ar  1 VX6   0.1170 
 47 C28      2.9151    17.0305    41.3597 C.ar  1 VX6  -0.1500 
 48 H28      3.6764    17.7329    41.6654 H     1 VX6   0.1500 
 49 C29      2.3009    16.2177    42.3172 C.ar  1 VX6  -0.1500 
 50 H29      2.6025    16.2883    43.3518 H     1 VX6   0.1500 
 51 N30      3.1079    17.7032    39.0141 N.am  1 VX6  -0.5470 
 52 H30      2.8190    17.4782    38.0728 H     1 VX6   0.3700 
 53 C31      3.9919    18.7145    39.1316 C.2   1 VX6   0.6300 
 54 O32      4.4682    19.1214    40.1834 O.2   1 VX6  -0.5700 
 55 C33      4.3778    19.3884    37.8345 C.3   1 VX6  -0.1000 
 56 H33      4.0396    18.6263    37.1324 H     1 VX6   0.1000 
 57 C34      4.2683    20.9162    37.9242 C.3   1 VX6  -0.2000 
 58 H341     3.8395    21.3805    38.8123 H     1 VX6   0.1000 
 59 H342     3.9934    21.4955    37.0427 H     1 VX6   0.1000 
 60 C35      5.6313    20.2473    37.9993 C.3   1 VX6  -0.2000 
 61 H351     6.3333    20.3491    37.1717 H     1 VX6   0.1000 
 62 H352     6.1795    20.2342    38.9413 H     1 VX6   0.1000 
 63 O1       2.1766    17.4057    29.3306 O.3   2 MXE  -0.6800 
 64 H1       2.2273    17.5290    30.2813 H     2 MXE   0.4000 
 65 C1       2.4829    16.0583    29.0590 C.3   2 MXE   0.1200 
 66 H11      3.3606    16.0046    28.4149 H     2 MXE   0.0800 
 67 H12      1.6375    15.5834    28.5613 H     2 MXE   0.0800 
 68 C2       2.7671    15.3505    30.3664 C.3   2 MXE   0.1200 
 69 H21      3.8067    15.5171    30.6483 H     2 MXE   0.0800 
 70 H22      2.5906    14.2818    30.2439 H     2 MXE   0.0800 
 71 O2       1.9199    15.8516    31.3833 O.3   2 MXE  -0.5600 
 72 C3       1.8841    14.9958    32.5117 C.3   2 MXE   0.0400 
 73 H31      1.2222    15.4187    33.2675 H     2 MXE   0.0800 
 74 H32      2.8883    14.8952    32.9235 H     2 MXE   0.0800 
 75 H33      1.5142    14.0151    32.2125 H     2 MXE   0.0800 
@<TRIPOS>BOND
  1   1   2  1   
  2   1   3  1   
  3   1  13  1   
  4   1  16  1   
  5   3   4  1   
  6   3   5  1   
  7   3   6  1   
  8   6   7  1   
  9   6   8  1   
 10   6   9  1   
 11   9  10  1   
 12   9  20  1   
 13  10  11  1   
 14  10  12  1   
 15  10  13  1   
 16  13  14  1   
 17  13  15  1   
 18  16  17  1   
 19  16  18  1   
 20  16  19  1   
 21  20  21  ar  
 22  20  26  ar  
 23  21  22  1   
 24  21  23  ar  
 25  23  24  ar  
 26  23  27  1   
 27  24  25  ar  
 28  25  26  ar  
 29  25  40  1   
 30  27  28  1   
 31  27  29  1   
 32  29  30  2   
 33  29  34  1   
 34  30  31  1   
 35  30  32  1   
 36  32  33  2   
 37  32  36  1   
 38  33  34  1   
 39  34  35  1   
 40  36  37  1   
 41  36  38  1   
 42  36  39  1   
 43  40  41  1   
 44  41  42  ar  
 45  41  49  ar  
 46  42  43  1   
 47  42  44  ar  
 48  44  45  1   
 49  44  46  ar  
 50  46  47  ar  
 51  46  51  1   
 52  47  48  1   
 53  47  49  ar  
 54  49  50  1   
 55  51  52  1   
 56  51  53  am  
 57  53  54  2   
 58  53  55  1   
 59  55  56  1   
 60  55  57  1   
 61  55  60  1   
 62  57  58  1   
 63  57  59  1   
 64  57  60  1   
 65  60  61  1   
 66  60  62  1   
 67  63  64  1   
 68  63  65  1   
 69  65  66  1   
 70  65  67  1   
 71  65  68  1   
 72  68  69  1   
 73  68  70  1   
 74  68  71  1   
 75  71  72  1   
 76  72  73  1   
 77  72  74  1   
 78  72  75  1   
@<TRIPOS>SUBSTRUCTURE
  1 VX6  24 GROUP 4 A1 **** 0
  2 MXE  68 GROUP 4 A2 **** 0

# MOE 2012.10 (io_trps.svl 2012.10)
