@<TRIPOS>MOLECULE
4zog.A
252 168 84 0 0 
SMALL
USER_CHARGES


@<TRIPOS>ATOM
  1 O       -2.7993    16.0681    21.9634 O.3    1 HOH   0.0000 
  2 H1      -1.8393    16.0681    21.9634 H      1 HOH   0.0000 
  3 H2      -3.0895    16.7151    22.6105 H      1 HOH   0.0000 
  4 O       21.3795    18.3284    27.5490 O.3    2 HOH   0.0000 
  5 H1      22.3395    18.3284    27.5490 H      2 HOH   0.0000 
  6 H2      21.0892    18.9755    28.1960 H      2 HOH   0.0000 
  7 O       12.8502    30.9630    31.1252 O.3    3 HOH   0.0000 
  8 H1      13.8102    30.9630    31.1252 H      3 HOH   0.0000 
  9 H2      12.5600    31.6101    31.7723 H      3 HOH   0.0000 
 10 O        0.2187    10.2906    31.8762 O.3    4 HOH  -0.8340 
 11 H1       1.1177    10.2454    32.2019 H      4 HOH   0.4170 
 12 H2       0.2637    10.8878    31.1295 H      4 HOH   0.4170 
 13 O        5.7978    35.3181    32.2821 O.3    5 HOH   0.0000 
 14 H1       6.7578    35.3181    32.2821 H      5 HOH   0.0000 
 15 H2       5.5075    35.9651    32.9292 H      5 HOH   0.0000 
 16 O        9.0564    32.1253    29.0075 O.3    6 HOH   0.0000 
 17 H1      10.0164    32.1253    29.0075 H      6 HOH   0.0000 
 18 H2       8.7661    32.7723    29.6546 H      6 HOH   0.0000 
 19 O       -2.0577    35.1104    29.3212 O.3    7 HOH   0.0000 
 20 H1      -1.0977    35.1104    29.3212 H      7 HOH   0.0000 
 21 H2      -2.3480    35.7575    29.9682 H      7 HOH   0.0000 
 22 O       -6.8900     2.9044    32.5525 O.3    8 HOH  -0.8340 
 23 H1      -7.6543     2.3345    32.4665 H      8 HOH   0.4170 
 24 H2      -6.4211     2.5638    33.3143 H      8 HOH   0.4170 
 25 O      -10.8808    -8.6546    27.9586 O.3    9 HOH   0.0000 
 26 H1      -9.9208    -8.6546    27.9586 H      9 HOH   0.0000 
 27 H2     -11.1710    -8.0076    28.6056 H      9 HOH   0.0000 
 28 O       17.2904    30.7136    51.0998 O.3   10 HOH   0.0000 
 29 H1      18.2504    30.7136    51.0998 H     10 HOH   0.0000 
 30 H2      17.0002    31.3606    51.7468 H     10 HOH   0.0000 
 31 O       -2.6140    20.4377    11.2033 O.3   11 HOH   0.0000 
 32 H1      -1.6540    20.4377    11.2033 H     11 HOH   0.0000 
 33 H2      -2.9043    21.0847    11.8503 H     11 HOH   0.0000 
 34 O        0.2405    27.0595    47.0174 O.3   12 HOH   0.0000 
 35 H1       1.2005    27.0595    47.0174 H     12 HOH   0.0000 
 36 H2      -0.0498    27.7065    47.6644 H     12 HOH   0.0000 
 37 O       -7.5578     5.9275    21.5970 O.3   13 HOH   0.0000 
 38 H1      -6.5978     5.9275    21.5970 H     13 HOH   0.0000 
 39 H2      -7.8481     6.5745    22.2440 H     13 HOH   0.0000 
 40 O       11.5761    31.2861    51.4241 O.3   14 HOH   0.0000 
 41 H1      12.5361    31.2861    51.4241 H     14 HOH   0.0000 
 42 H2      11.2858    31.9331    52.0711 H     14 HOH   0.0000 
 43 O        3.4869    13.0094    22.1980 O.3   15 HOH   0.0000 
 44 H1       4.4469    13.0094    22.1980 H     15 HOH   0.0000 
 45 H2       3.1966    13.6565    22.8450 H     15 HOH   0.0000 
 46 O        1.9521    31.6238    23.1258 O.3   16 HOH   0.0000 
 47 H1       2.9121    31.6238    23.1258 H     16 HOH   0.0000 
 48 H2       1.6618    32.2709    23.7728 H     16 HOH   0.0000 
 49 O        8.4014    35.5029    32.7088 O.3   17 HOH   0.0000 
 50 H1       9.3614    35.5029    32.7088 H     17 HOH   0.0000 
 51 H2       8.1111    36.1500    33.3558 H     17 HOH   0.0000 
 52 O      -20.6764     1.6620    22.0534 O.3   18 HOH   0.0000 
 53 H1     -19.7164     1.6620    22.0534 H     18 HOH   0.0000 
 54 H2     -20.9667     2.3091    22.7004 H     18 HOH   0.0000 
 55 O       16.9329    25.0552    26.3377 O.3   19 HOH   0.0000 
 56 H1      17.8929    25.0552    26.3377 H     19 HOH   0.0000 
 57 H2      16.6426    25.7022    26.9847 H     19 HOH   0.0000 
 58 O        2.6391    32.6478    34.8390 O.3   20 HOH   0.0000 
 59 H1       3.5991    32.6478    34.8390 H     20 HOH   0.0000 
 60 H2       2.3489    33.2949    35.4861 H     20 HOH   0.0000 
 61 O       -4.6163    -0.1490    19.0410 O.3   21 HOH  -0.8340 
 62 H1      -3.6890     0.0739    18.9590 H     21 HOH   0.4170 
 63 H2      -4.7082    -0.4668    19.9392 H     21 HOH   0.4170 
 64 O      -15.6423     4.9295    40.0418 O.3   22 HOH   0.0000 
 65 H1     -14.6823     4.9295    40.0418 H     22 HOH   0.0000 
 66 H2     -15.9326     5.5766    40.6888 H     22 HOH   0.0000 
 67 O       -2.7760    22.7439    16.5318 O.3   23 HOH   0.0000 
 68 H1      -1.8160    22.7439    16.5318 H     23 HOH   0.0000 
 69 H2      -3.0662    23.3910    17.1789 H     23 HOH   0.0000 
 70 O        9.2893    15.8789    16.1035 O.3   24 HOH   0.0000 
 71 H1      10.2493    15.8789    16.1035 H     24 HOH   0.0000 
 72 H2       8.9991    16.5259    16.7506 H     24 HOH   0.0000 
 73 O      -25.1557    12.0475    42.8540 O.3   25 HOH   0.0000 
 74 H1     -24.1957    12.0475    42.8540 H     25 HOH   0.0000 
 75 H2     -25.4460    12.6946    43.5010 H     25 HOH   0.0000 
 76 O       -3.1819    25.2024    20.3758 O.3   26 HOH   0.0000 
 77 H1      -2.2219    25.2024    20.3758 H     26 HOH   0.0000 
 78 H2      -3.4722    25.8494    21.0228 H     26 HOH   0.0000 
 79 O       -4.3487    15.7702    15.4204 O.3   27 HOH   0.0000 
 80 H1      -3.3887    15.7702    15.4204 H     27 HOH   0.0000 
 81 H2      -4.6390    16.4172    16.0674 H     27 HOH   0.0000 
 82 O        0.2007    11.1733    34.7518 O.3   28 HOH  -0.8340 
 83 H1       0.2046    10.9230    33.8279 H     28 HOH   0.4170 
 84 H2      -0.0965    12.0831    34.7527 H     28 HOH   0.4170 
 85 O        2.5148    22.4534    54.3128 O.3   29 HOH   0.0000 
 86 H1       3.4748    22.4534    54.3128 H     29 HOH   0.0000 
 87 H2       2.2246    23.1005    54.9599 H     29 HOH   0.0000 
 88 O       -9.5234    -5.7751    16.2163 O.3   30 HOH   0.0000 
 89 H1      -8.5634    -5.7751    16.2163 H     30 HOH   0.0000 
 90 H2      -9.8137    -5.1281    16.8633 H     30 HOH   0.0000 
 91 O      -16.5546     7.0166    45.9473 O.3   31 HOH   0.0000 
 92 H1     -15.5946     7.0166    45.9473 H     31 HOH   0.0000 
 93 H2     -16.8449     7.6636    46.5944 H     31 HOH   0.0000 
 94 O       -3.9951    29.4046    38.4993 O.3   32 HOH   0.0000 
 95 H1      -3.0351    29.4046    38.4993 H     32 HOH   0.0000 
 96 H2      -4.2853    30.0517    39.1464 H     32 HOH   0.0000 
 97 O       -3.7097    11.6163    27.9279 O.3   33 HOH   0.0000 
 98 H1      -2.7497    11.6163    27.9279 H     33 HOH   0.0000 
 99 H2      -4.0000    12.2634    28.5750 H     33 HOH   0.0000 
100 O        2.1073    28.8939    35.4153 O.3   34 HOH   0.0000 
101 H1       3.0673    28.8939    35.4153 H     34 HOH   0.0000 
102 H2       1.8170    29.5409    36.0623 H     34 HOH   0.0000 
103 O      -17.2919     7.3819    42.9369 O.3   35 HOH   0.0000 
104 H1     -16.3319     7.3819    42.9369 H     35 HOH   0.0000 
105 H2     -17.5822     8.0290    43.5839 H     35 HOH   0.0000 
106 O      -13.0003    20.1331    46.5085 O.3   36 HOH   0.0000 
107 H1     -12.0403    20.1331    46.5085 H     36 HOH   0.0000 
108 H2     -13.2906    20.7801    47.1556 H     36 HOH   0.0000 
109 O       -5.0957    12.5790    21.7494 O.3   37 HOH   0.0000 
110 H1      -4.1357    12.5790    21.7494 H     37 HOH   0.0000 
111 H2      -5.3860    13.2260    22.3964 H     37 HOH   0.0000 
112 O       -4.0657    15.5230    25.2805 O.3   38 HOH   0.0000 
113 H1      -3.1057    15.5230    25.2805 H     38 HOH   0.0000 
114 H2      -4.3559    16.1700    25.9275 H     38 HOH   0.0000 
115 O      -11.1138    26.9213    45.4514 O.3   39 HOH   0.0000 
116 H1     -10.1538    26.9213    45.4514 H     39 HOH   0.0000 
117 H2     -11.4041    27.5684    46.0985 H     39 HOH   0.0000 
118 O       -9.7565     7.1099    22.7819 O.3   40 HOH   0.0000 
119 H1      -8.7965     7.1099    22.7819 H     40 HOH   0.0000 
120 H2     -10.0468     7.7569    23.4290 H     40 HOH   0.0000 
121 O      -24.5351    18.7540    23.1252 O.3   41 HOH   0.0000 
122 H1     -23.5751    18.7540    23.1252 H     41 HOH   0.0000 
123 H2     -24.8254    19.4010    23.7723 H     41 HOH   0.0000 
124 O      -22.0085     3.6093    32.8687 O.3   42 HOH   0.0000 
125 H1     -21.0485     3.6093    32.8687 H     42 HOH   0.0000 
126 H2     -22.2988     4.2564    33.5158 H     42 HOH   0.0000 
127 O       -7.0323    12.7895    44.6345 O.3   43 HOH  -0.8340 
128 H1      -7.1131    13.5031    45.2673 H     43 HOH   0.4170 
129 H2      -7.2193    13.1965    43.7886 H     43 HOH   0.4170 
130 O       20.1806    16.4484    29.4685 O.3   44 HOH   0.0000 
131 H1      21.1406    16.4484    29.4685 H     44 HOH   0.0000 
132 H2      19.8904    17.0955    30.1156 H     44 HOH   0.0000 
133 O      -15.0357     6.6814    13.2338 O.3   45 HOH   0.0000 
134 H1     -14.0757     6.6814    13.2338 H     45 HOH   0.0000 
135 H2     -15.3259     7.3285    13.8809 H     45 HOH   0.0000 
136 O      -18.0483     9.8888    17.9446 O.3   46 HOH   0.0000 
137 H1     -17.0883     9.8888    17.9446 H     46 HOH   0.0000 
138 H2     -18.3386    10.5359    18.5916 H     46 HOH   0.0000 
139 O       -6.7733     9.5716    33.9478 O.3   47 HOH   0.0000 
140 H1      -5.8133     9.5716    33.9478 H     47 HOH   0.0000 
141 H2      -7.0635    10.2187    34.5949 H     47 HOH   0.0000 
142 O      -16.0490    -2.5046    26.9706 O.3   48 HOH   0.0000 
143 H1     -15.0890    -2.5046    26.9706 H     48 HOH   0.0000 
144 H2     -16.3393    -1.8575    27.6177 H     48 HOH   0.0000 
145 O       13.7078    28.1271    31.2731 O.3   49 HOH   0.0000 
146 H1      14.6678    28.1271    31.2731 H     49 HOH   0.0000 
147 H2      13.4175    28.7741    31.9201 H     49 HOH   0.0000 
148 O       -1.9406    29.8225    35.3452 O.3   50 HOH   0.0000 
149 H1      -0.9806    29.8225    35.3452 H     50 HOH   0.0000 
150 H2      -2.2309    30.4696    35.9923 H     50 HOH   0.0000 
151 O        5.4291    21.5786    41.1558 O.3   51 HOH  -0.8340 
152 H1       6.2233    21.4610    41.6769 H     51 HOH   0.4170 
153 H2       5.1497    20.6889    40.9400 H     51 HOH   0.4170 
154 O      -16.3876    10.1748    12.9526 O.3   52 HOH   0.0000 
155 H1     -15.4276    10.1748    12.9526 H     52 HOH   0.0000 
156 H2     -16.6779    10.8218    13.5996 H     52 HOH   0.0000 
157 O      -24.0723    16.0377    34.9858 O.3   53 HOH   0.0000 
158 H1     -23.1123    16.0377    34.9858 H     53 HOH   0.0000 
159 H2     -24.3626    16.6847    35.6328 H     53 HOH   0.0000 
160 O      -15.8529    30.0442    24.9627 O.3   54 HOH   0.0000 
161 H1     -14.8929    30.0442    24.9627 H     54 HOH   0.0000 
162 H2     -16.1432    30.6913    25.6097 H     54 HOH   0.0000 
163 O      -15.3451    12.6664    11.2264 O.3   55 HOH   0.0000 
164 H1     -14.3851    12.6664    11.2264 H     55 HOH   0.0000 
165 H2     -15.6354    13.3134    11.8735 H     55 HOH   0.0000 
166 O        7.1191    11.7239    52.8909 O.3   56 HOH   0.0000 
167 H1       8.0791    11.7239    52.8909 H     56 HOH   0.0000 
168 H2       6.8288    12.3710    53.5380 H     56 HOH   0.0000 
169 O       10.0888    22.1237    20.7837 O.3   57 HOH   0.0000 
170 H1      11.0488    22.1237    20.7837 H     57 HOH   0.0000 
171 H2       9.7985    22.7707    21.4308 H     57 HOH   0.0000 
172 O      -26.8801    15.3063    45.5445 O.3   58 HOH   0.0000 
173 H1     -25.9201    15.3063    45.5445 H     58 HOH   0.0000 
174 H2     -27.1703    15.9533    46.1916 H     58 HOH   0.0000 
175 O        4.2785    10.4684    10.5296 O.3   59 HOH   0.0000 
176 H1       5.2385    10.4684    10.5296 H     59 HOH   0.0000 
177 H2       3.9882    11.1155    11.1766 H     59 HOH   0.0000 
178 O       -5.4240     7.2295    34.0387 O.3   60 HOH   0.0000 
179 H1      -4.4640     7.2295    34.0387 H     60 HOH   0.0000 
180 H2      -5.7143     7.8766    34.6857 H     60 HOH   0.0000 
181 O      -23.7442     7.7776    40.6623 O.3   61 HOH   0.0000 
182 H1     -22.7842     7.7776    40.6623 H     61 HOH   0.0000 
183 H2     -24.0345     8.4247    41.3094 H     61 HOH   0.0000 
184 O      -21.0089    26.1327    21.6582 O.3   62 HOH   0.0000 
185 H1     -20.0489    26.1327    21.6582 H     62 HOH   0.0000 
186 H2     -21.2992    26.7798    22.3053 H     62 HOH   0.0000 
187 O        7.2460    13.1216    55.4929 O.3   63 HOH   0.0000 
188 H1       8.2060    13.1216    55.4929 H     63 HOH   0.0000 
189 H2       6.9557    13.7687    56.1399 H     63 HOH   0.0000 
190 O      -20.9186    14.4928    16.3903 O.3   64 HOH   0.0000 
191 H1     -19.9586    14.4928    16.3903 H     64 HOH   0.0000 
192 H2     -21.2089    15.1399    17.0374 H     64 HOH   0.0000 
193 O        7.4793    23.3396    22.9673 O.3   65 HOH   0.0000 
194 H1       8.4393    23.3396    22.9673 H     65 HOH   0.0000 
195 H2       7.1890    23.9866    23.6144 H     65 HOH   0.0000 
196 O       -2.8035    12.8819    43.8042 O.3   66 HOH  -0.8340 
197 H1      -2.1907    13.2470    44.4423 H     66 HOH   0.4170 
198 H2      -3.2553    12.1833    44.2777 H     66 HOH   0.4170 
199 O        2.6096    16.8641    36.2820 O.3   67 HOH  -0.8340 
200 H1       2.4087    17.3856    35.5049 H     67 HOH   0.4170 
201 H2       2.1923    16.0184    36.1180 H     67 HOH   0.4170 
202 O       -8.7768     8.6936     7.2639 O.3   68 HOH   0.0000 
203 H1      -7.8168     8.6936     7.2639 H     68 HOH   0.0000 
204 H2      -9.0670     9.3406     7.9110 H     68 HOH   0.0000 
205 O      -12.2732     1.1038    36.2775 O.3   69 HOH   0.0000 
206 H1     -11.3132     1.1038    36.2775 H     69 HOH   0.0000 
207 H2     -12.5635     1.7509    36.9246 H     69 HOH   0.0000 
208 O       -8.3760    16.8161     9.3411 O.3   70 HOH   0.0000 
209 H1      -7.4160    16.8161     9.3411 H     70 HOH   0.0000 
210 H2      -8.6663    17.4631     9.9882 H     70 HOH   0.0000 
211 O       10.1602    15.9503    27.7637 O.3   71 HOH   0.0000 
212 H1      11.1202    15.9503    27.7637 H     71 HOH   0.0000 
213 H2       9.8699    16.5973    28.4107 H     71 HOH   0.0000 
214 O      -24.5535     4.6349    23.9705 O.3   72 HOH   0.0000 
215 H1     -23.5935     4.6349    23.9705 H     72 HOH   0.0000 
216 H2     -24.8438     5.2819    24.6176 H     72 HOH   0.0000 
217 O      -12.7397    24.0118    14.5061 O.3   73 HOH   0.0000 
218 H1     -11.7797    24.0118    14.5061 H     73 HOH   0.0000 
219 H2     -13.0300    24.6589    15.1532 H     73 HOH   0.0000 
220 O      -12.0856    22.8046    12.1370 O.3   74 HOH   0.0000 
221 H1     -11.1256    22.8046    12.1370 H     74 HOH   0.0000 
222 H2     -12.3759    23.4516    12.7841 H     74 HOH   0.0000 
223 O      -13.7520    20.9527    49.2374 O.3   75 HOH   0.0000 
224 H1     -12.7920    20.9527    49.2374 H     75 HOH   0.0000 
225 H2     -14.0423    21.5997    49.8845 H     75 HOH   0.0000 
226 O      -25.2103    23.5849    25.8238 O.3   76 HOH   0.0000 
227 H1     -24.2503    23.5849    25.8238 H     76 HOH   0.0000 
228 H2     -25.5005    24.2320    26.4708 H     76 HOH   0.0000 
229 O       10.4443    13.9658    39.0346 O.3   77 HOH   0.0000 
230 H1      11.4043    13.9658    39.0346 H     77 HOH   0.0000 
231 H2      10.1540    14.6128    39.6817 H     77 HOH   0.0000 
232 O        0.2801    11.1028    48.5022 O.3   78 HOH  -0.8340 
233 H1      -0.1336    10.2483    48.6243 H     78 HOH   0.4170 
234 H2       0.8549    11.2018    49.2612 H     78 HOH   0.4170 
235 O      -17.8888     3.5434    39.0223 O.3   79 HOH   0.0000 
236 H1     -16.9288     3.5434    39.0223 H     79 HOH   0.0000 
237 H2     -18.1790     4.1904    39.6694 H     79 HOH   0.0000 
238 O       -4.9802    10.9839    45.6539 O.3   80 HOH  -0.8340 
239 H1      -5.7368    11.4437    45.2902 H     80 HOH   0.4170 
240 H2      -5.1754    10.0566    45.5192 H     80 HOH   0.4170 
241 O       19.2230    28.2041    33.0330 O.3   81 HOH   0.0000 
242 H1      20.1830    28.2041    33.0330 H     81 HOH   0.0000 
243 H2      18.9327    28.8512    33.6800 H     81 HOH   0.0000 
244 O      -27.4516    13.6263    43.6419 O.3   82 HOH   0.0000 
245 H1     -26.4916    13.6263    43.6419 H     82 HOH   0.0000 
246 H2     -27.7419    14.2733    44.2889 H     82 HOH   0.0000 
247 O       17.7000    12.0317    28.1189 O.3   83 HOH   0.0000 
248 H1      18.6600    12.0317    28.1189 H     83 HOH   0.0000 
249 H2      17.4097    12.6787    28.7660 H     83 HOH   0.0000 
250 O       16.1503    12.5748    26.1573 O.3   84 HOH   0.0000 
251 H1      17.1103    12.5748    26.1573 H     84 HOH   0.0000 
252 H2      15.8600    13.2218    26.8044 H     84 HOH   0.0000 
@<TRIPOS>BOND
  1   1   2  1   
  2   1   3  1   
  3   4   5  1   
  4   4   6  1   
  5   7   8  1   
  6   7   9  1   
  7  10  11  1   
  8  10  12  1   
  9  13  14  1   
 10  13  15  1   
 11  16  17  1   
 12  16  18  1   
 13  19  20  1   
 14  19  21  1   
 15  22  23  1   
 16  22  24  1   
 17  25  26  1   
 18  25  27  1   
 19  28  29  1   
 20  28  30  1   
 21  31  32  1   
 22  31  33  1   
 23  34  35  1   
 24  34  36  1   
 25  37  38  1   
 26  37  39  1   
 27  40  41  1   
 28  40  42  1   
 29  43  44  1   
 30  43  45  1   
 31  46  47  1   
 32  46  48  1   
 33  49  50  1   
 34  49  51  1   
 35  52  53  1   
 36  52  54  1   
 37  55  56  1   
 38  55  57  1   
 39  58  59  1   
 40  58  60  1   
 41  61  62  1   
 42  61  63  1   
 43  64  65  1   
 44  64  66  1   
 45  67  68  1   
 46  67  69  1   
 47  70  71  1   
 48  70  72  1   
 49  73  74  1   
 50  73  75  1   
 51  76  77  1   
 52  76  78  1   
 53  79  80  1   
 54  79  81  1   
 55  82  83  1   
 56  82  84  1   
 57  85  86  1   
 58  85  87  1   
 59  88  89  1   
 60  88  90  1   
 61  91  92  1   
 62  91  93  1   
 63  94  95  1   
 64  94  96  1   
 65  97  98  1   
 66  97  99  1   
 67 100 101  1   
 68 100 102  1   
 69 103 104  1   
 70 103 105  1   
 71 106 107  1   
 72 106 108  1   
 73 109 110  1   
 74 109 111  1   
 75 112 113  1   
 76 112 114  1   
 77 115 116  1   
 78 115 117  1   
 79 118 119  1   
 80 118 120  1   
 81 121 122  1   
 82 121 123  1   
 83 124 125  1   
 84 124 126  1   
 85 127 128  1   
 86 127 129  1   
 87 130 131  1   
 88 130 132  1   
 89 133 134  1   
 90 133 135  1   
 91 136 137  1   
 92 136 138  1   
 93 139 140  1   
 94 139 141  1   
 95 142 143  1   
 96 142 144  1   
 97 145 146  1   
 98 145 147  1   
 99 148 149  1   
100 148 150  1   
101 151 152  1   
102 151 153  1   
103 154 155  1   
104 154 156  1   
105 157 158  1   
106 157 159  1   
107 160 161  1   
108 160 162  1   
109 163 164  1   
110 163 165  1   
111 166 167  1   
112 166 168  1   
113 169 170  1   
114 169 171  1   
115 172 173  1   
116 172 174  1   
117 175 176  1   
118 175 177  1   
119 178 179  1   
120 178 180  1   
121 181 182  1   
122 181 183  1   
123 184 185  1   
124 184 186  1   
125 187 188  1   
126 187 189  1   
127 190 191  1   
128 190 192  1   
129 193 194  1   
130 193 195  1   
131 196 197  1   
132 196 198  1   
133 199 200  1   
134 199 201  1   
135 202 203  1   
136 202 204  1   
137 205 206  1   
138 205 207  1   
139 208 209  1   
140 208 210  1   
141 211 212  1   
142 211 213  1   
143 214 215  1   
144 214 216  1   
145 217 218  1   
146 217 219  1   
147 220 221  1   
148 220 222  1   
149 223 224  1   
150 223 225  1   
151 226 227  1   
152 226 228  1   
153 229 230  1   
154 229 231  1   
155 232 233  1   
156 232 234  1   
157 235 236  1   
158 235 237  1   
159 238 239  1   
160 238 240  1   
161 241 242  1   
162 241 243  1   
163 244 245  1   
164 244 246  1   
165 247 248  1   
166 247 249  1   
167 250 251  1   
168 250 252  1   
@<TRIPOS>SUBSTRUCTURE
  1 HOH   1 GROUP 4 A **** 0
  2 HOH   4 GROUP 4 A **** 0
  3 HOH   7 GROUP 4 A **** 0
  4 HOH  10 GROUP 4 A **** 0
  5 HOH  13 GROUP 4 A **** 0
  6 HOH  16 GROUP 4 A **** 0
  7 HOH  19 GROUP 4 A **** 0
  8 HOH  22 GROUP 4 A **** 0
  9 HOH  25 GROUP 4 A **** 0
 10 HOH  28 GROUP 4 A **** 0
 11 HOH  31 GROUP 4 A **** 0
 12 HOH  34 GROUP 4 A **** 0
 13 HOH  37 GROUP 4 A **** 0
 14 HOH  40 GROUP 4 A **** 0
 15 HOH  43 GROUP 4 A **** 0
 16 HOH  46 GROUP 4 A **** 0
 17 HOH  49 GROUP 4 A **** 0
 18 HOH  52 GROUP 4 A **** 0
 19 HOH  55 GROUP 4 A **** 0
 20 HOH  58 GROUP 4 A **** 0
 21 HOH  61 GROUP 4 A **** 0
 22 HOH  64 GROUP 4 A **** 0
 23 HOH  67 GROUP 4 A **** 0
 24 HOH  70 GROUP 4 A **** 0
 25 HOH  73 GROUP 4 A **** 0
 26 HOH  76 GROUP 4 A **** 0
 27 HOH  79 GROUP 4 A **** 0
 28 HOH  82 GROUP 4 A **** 0
 29 HOH  85 GROUP 4 A **** 0
 30 HOH  88 GROUP 4 A **** 0
 31 HOH  91 GROUP 4 A **** 0
 32 HOH  94 GROUP 4 A **** 0
 33 HOH  97 GROUP 4 A **** 0
 34 HOH 100 GROUP 4 A **** 0
 35 HOH 103 GROUP 4 A **** 0
 36 HOH 106 GROUP 4 A **** 0
 37 HOH 109 GROUP 4 A **** 0
 38 HOH 112 GROUP 4 A **** 0
 39 HOH 115 GROUP 4 A **** 0
 40 HOH 118 GROUP 4 A **** 0
 41 HOH 121 GROUP 4 A **** 0
 42 HOH 124 GROUP 4 A **** 0
 43 HOH 127 GROUP 4 A **** 0
 44 HOH 130 GROUP 4 A **** 0
 45 HOH 133 GROUP 4 A **** 0
 46 HOH 136 GROUP 4 A **** 0
 47 HOH 139 GROUP 4 A **** 0
 48 HOH 142 GROUP 4 A **** 0
 49 HOH 145 GROUP 4 A **** 0
 50 HOH 148 GROUP 4 A **** 0
 51 HOH 151 GROUP 4 A **** 0
 52 HOH 154 GROUP 4 A **** 0
 53 HOH 157 GROUP 4 A **** 0
 54 HOH 160 GROUP 4 A **** 0
 55 HOH 163 GROUP 4 A **** 0
 56 HOH 166 GROUP 4 A **** 0
 57 HOH 169 GROUP 4 A **** 0
 58 HOH 172 GROUP 4 A **** 0
 59 HOH 175 GROUP 4 A **** 0
 60 HOH 178 GROUP 4 A **** 0
 61 HOH 181 GROUP 4 A **** 0
 62 HOH 184 GROUP 4 A **** 0
 63 HOH 187 GROUP 4 A **** 0
 64 HOH 190 GROUP 4 A **** 0
 65 HOH 193 GROUP 4 A **** 0
 66 HOH 196 GROUP 4 A **** 0
 67 HOH 199 GROUP 4 A **** 0
 68 HOH 202 GROUP 4 A **** 0
 69 HOH 205 GROUP 4 A **** 0
 70 HOH 208 GROUP 4 A **** 0
 71 HOH 211 GROUP 4 A **** 0
 72 HOH 214 GROUP 4 A **** 0
 73 HOH 217 GROUP 4 A **** 0
 74 HOH 220 GROUP 4 A **** 0
 75 HOH 223 GROUP 4 A **** 0
 76 HOH 226 GROUP 4 A **** 0
 77 HOH 229 GROUP 4 A **** 0
 78 HOH 232 GROUP 4 A **** 0
 79 HOH 235 GROUP 4 A **** 0
 80 HOH 238 GROUP 4 A **** 0
 81 HOH 241 GROUP 4 A **** 0
 82 HOH 244 GROUP 4 A **** 0
 83 HOH 247 GROUP 4 A **** 0
 84 HOH 250 GROUP 4 A **** 0

# MOE 2012.10 (io_trps.svl 2012.10)
