@<TRIPOS>MOLECULE
3cs9.A
61 65 1 0 0 
SMALL
USER_CHARGES


@<TRIPOS>ATOM
  1 O17      0.8806    22.6900    35.1165 O.2   1 NIL  -0.5700 
  2 C16      2.0069    23.0658    34.9002 C.2   1 NIL   0.5438 
  3 N14      2.4652    23.6463    33.7809 N.am  1 NIL  -0.5470 
  4 H14      3.3968    24.0349    33.8141 H     1 NIL   0.3700 
  5 C11      1.7758    23.7617    32.5805 C.ar  1 NIL   0.1170 
  6 C9       2.4706    23.8899    31.3523 C.ar  1 NIL  -0.1500 
  7 H9       3.5505    23.9055    31.3541 H     1 NIL   0.1500 
  8 C8       1.7859    23.9966    30.1386 C.ar  1 NIL  -0.0230 
  9 N51      2.4644    24.0816    28.9135 N.pl3 1 NIL   0.3262 
 10 C56      3.7763    24.4811    28.6649 C.2   1 NIL  -0.3016 
 11 H56      4.5118    24.7397    29.4122 H     1 NIL   0.1500 
 12 C55      3.9690    24.4890    27.3278 C.2   1 NIL   0.0462 
 13 C58      5.2304    24.8326    26.5731 C.3   1 NIL  -0.0590 
 14 H581     6.0047    25.1349    27.2782 H     1 NIL   0.0800 
 15 H582     5.0288    25.6509    25.8819 H     1 NIL   0.0800 
 16 H583     5.5685    23.9600    26.0142 H     1 NIL   0.0800 
 17 N54      2.8232    24.0773    26.7407 N.2   1 NIL  -0.5653 
 18 C52      1.9480    23.8782    27.6958 C.2   1 NIL   0.0365 
 19 H52      0.9242    23.5828    27.5197 H     1 NIL   0.1500 
 20 C6       0.3960    24.0552    30.1389 C.ar  1 NIL  -0.1500 
 21 H6      -0.1313    24.1748    29.2041 H     1 NIL   0.1500 
 22 C12      0.3684    23.8754    32.5689 C.ar  1 NIL  -0.1500 
 23 H12     -0.1796    23.8969    33.4993 H     1 NIL   0.1500 
 24 C5      -0.3281    23.9617    31.3297 C.ar  1 NIL  -0.1435 
 25 C2      -1.8211    24.0200    31.3438 C.3   1 NIL   1.1635 
 26 F4      -2.3511    24.8176    32.2923 F     1 NIL  -0.3400 
 27 F3      -2.2876    24.5710    30.2293 F     1 NIL  -0.3400 
 28 F1      -2.3790    22.8181    31.5974 F     1 NIL  -0.3400 
 29 C18      2.8859    23.1480    36.0831 C.ar  1 NIL   0.0862 
 30 C25      4.1418    23.7727    36.1067 C.ar  1 NIL  -0.1500 
 31 H25      4.5623    24.1492    35.1859 H     1 NIL   0.1500 
 32 C23      4.8594    23.9180    37.2949 C.ar  1 NIL  -0.1500 
 33 H23      5.8513    24.3442    37.2663 H     1 NIL   0.1500 
 34 C22      4.3229    23.5256    38.5107 C.ar  1 NIL  -0.1435 
 35 C27      5.1138    23.6971    39.7998 C.3   1 NIL  -0.0965 
 36 H271     6.0910    24.1230    39.5726 H     1 NIL   0.0800 
 37 H272     5.2429    22.7265    40.2787 H     1 NIL   0.0800 
 38 H273     4.5737    24.3646    40.4714 H     1 NIL   0.0800 
 39 C21      3.0323    22.9988    38.5073 C.ar  1 NIL   0.1000 
 40 C19      2.3388    22.8383    37.3011 C.ar  1 NIL  -0.1500 
 41 H19      1.3300    22.4540    37.3320 H     1 NIL   0.1500 
 42 N31      2.5343    22.4473    39.6949 N.pl3 1 NIL  -0.6000 
 43 H31      2.0759    23.0353    40.3762 H     1 NIL   0.4000 
 44 C33      2.6767    21.0782    39.9290 C.ar  1 NIL   0.7200 
 45 N40      3.3054    20.1691    39.1947 N.ar  1 NIL  -0.6200 
 46 C38      3.2523    18.8962    39.6309 C.ar  1 NIL   0.1600 
 47 H38      3.7898    18.1371    39.0821 H     1 NIL   0.1500 
 48 C36      2.5578    18.5335    40.7208 C.ar  1 NIL  -0.1500 
 49 H36      2.5106    17.4990    41.0274 H     1 NIL   0.1500 
 50 C35      1.9197    19.4930    41.4247 C.ar  1 NIL   0.3100 
 51 N34      1.9699    20.7761    41.0484 N.ar  1 NIL  -0.6200 
 52 C41      1.1635    19.2194    42.6746 C.ar  1 NIL   0.0000 
 53 C49      1.0688    17.9242    43.2085 C.ar  1 NIL  -0.1500 
 54 H49      1.5655    17.0954    42.7260 H     1 NIL   0.1500 
 55 C47      0.3274    17.7238    44.3659 C.ar  1 NIL  -0.1500 
 56 H47      0.2180    16.7361    44.7888 H     1 NIL   0.1500 
 57 C45     -0.2721    18.8292    44.9682 C.ar  1 NIL   0.1600 
 58 H45     -0.8097    18.6761    45.8923 H     1 NIL   0.1500 
 59 N44     -0.2196    20.0735    44.4654 N.ar  1 NIL  -0.6200 
 60 C42      0.5030    20.2619    43.3539 C.ar  1 NIL   0.1600 
 61 H42      0.5836    21.2636    42.9583 H     1 NIL   0.1500 
@<TRIPOS>BOND
  1   1   2  2   
  2   2   3  am  
  3   2  29  1   
  4   3   4  1   
  5   3   5  1   
  6   5   6  ar  
  7   5  22  ar  
  8   6   7  1   
  9   6   8  ar  
 10   8   9  1   
 11   8  20  ar  
 12   9  10  1   
 13   9  18  1   
 14  10  11  1   
 15  10  12  2   
 16  12  13  1   
 17  12  17  1   
 18  13  14  1   
 19  13  15  1   
 20  13  16  1   
 21  17  18  2   
 22  18  19  1   
 23  20  21  1   
 24  20  24  ar  
 25  22  23  1   
 26  22  24  ar  
 27  24  25  1   
 28  25  26  1   
 29  25  27  1   
 30  25  28  1   
 31  29  30  ar  
 32  29  40  ar  
 33  30  31  1   
 34  30  32  ar  
 35  32  33  1   
 36  32  34  ar  
 37  34  35  1   
 38  34  39  ar  
 39  35  36  1   
 40  35  37  1   
 41  35  38  1   
 42  39  40  ar  
 43  39  42  1   
 44  40  41  1   
 45  42  43  1   
 46  42  44  1   
 47  44  45  ar  
 48  44  51  ar  
 49  45  46  ar  
 50  46  47  1   
 51  46  48  ar  
 52  48  49  1   
 53  48  50  ar  
 54  50  51  ar  
 55  50  52  1   
 56  52  53  ar  
 57  52  60  ar  
 58  53  54  1   
 59  53  55  ar  
 60  55  56  1   
 61  55  57  ar  
 62  57  58  1   
 63  57  59  ar  
 64  59  60  ar  
 65  60  61  1   
@<TRIPOS>SUBSTRUCTURE
  1 NIL   2 GROUP 4 A **** 0

# MOE 2012.10 (io_trps.svl 2012.10)
