@<TRIPOS>MOLECULE
3ue4.B
66 69 1 0 0 
SMALL
USER_CHARGES


@<TRIPOS>ATOM
  1 CAA      1.5095    13.9711    43.9290 C.3   1 DB8   0.0400 
  2 HAA1     1.6458    12.9501    44.2856 H     1 DB8   0.0800 
  3 HAA2     2.4834    14.4403    43.7896 H     1 DB8   0.0800 
  4 HAA3     0.9743    13.9559    42.9795 H     1 DB8   0.0800 
  5 O02      6.0153    21.1719    40.5470 O.3   1 DB8  -0.3625 
  6 CAC     -2.3839    14.5143    48.0005 C.3   1 DB8   0.3430 
  7 HAC1    -1.3566    14.5157    48.3651 H     1 DB8   0.0800 
  8 HAC2    -2.4177    14.0575    47.0114 H     1 DB8   0.0800 
  9 NAD      1.8985    21.3700    39.4458 N.1   1 DB8  -0.5571 
 10 CL1      6.3900    20.8122    37.6175 Cl    1 DB8  -0.1770 
 11 CL2      2.1066    17.2478    37.9596 Cl    1 DB8  -0.1770 
 12 CAG      1.4772    20.8899    40.3827 C.1   1 DB8   0.4841 
 13 CAH      0.0802    20.9291    42.5835 C.ar  1 DB8   0.1600 
 14 HAH     -0.1753    21.9627    42.4023 H     1 DB8   0.1500 
 15 CAI      4.2491    19.0406    37.8559 C.ar  1 DB8  -0.1500 
 16 HAI      4.3166    18.8505    36.7949 H     1 DB8   0.1500 
 17 CAJ      4.0978    19.5920    40.8254 C.ar  1 DB8  -0.1500 
 18 HAJ      4.0387    19.7824    41.8869 H     1 DB8   0.1500 
 19 CAK     -0.7019    18.2207    45.2748 C.ar  1 DB8  -0.1500 
 20 HAK     -1.3302    18.7712    45.9594 H     1 DB8   0.1500 
 21 CAL      1.0450    16.6472    43.3858 C.ar  1 DB8  -0.1500 
 22 HAL      1.6637    16.0794    42.7067 H     1 DB8   0.1500 
 23 CAM     -2.8988    15.9458    47.9196 C.3   1 DB8  -0.1600 
 24 HAM1    -3.2894    16.2464    48.8918 H     1 DB8   0.0800 
 25 HAM2    -3.6927    16.0044    47.1751 H     1 DB8   0.0800 
 26 CAN     -1.7575    16.8777    47.5201 C.3   1 DB8   0.1200 
 27 HAN1    -1.2168    17.2023    48.4091 H     1 DB8   0.0800 
 28 HAN2    -2.1562    17.7483    46.9993 H     1 DB8   0.0800 
 29 CAO     -6.3072    11.9610    51.3098 C.3   1 DB8   0.0300 
 30 HAO1    -6.5824    11.0047    50.8650 H     1 DB8   0.0800 
 31 HAO2    -7.1799    12.6136    51.3370 H     1 DB8   0.0800 
 32 HAO3    -5.9433    11.7985    52.3244 H     1 DB8   0.0800 
 33 CAP     -3.7227    12.3764    48.6473 C.3   1 DB8   0.3430 
 34 HAP1    -4.5163    12.4236    47.9017 H     1 DB8   0.0800 
 35 HAP2    -2.8949    11.7825    48.2597 H     1 DB8   0.0800 
 36 CAQ     -4.2708    14.5221    49.5941 C.3   1 DB8   0.3430 
 37 HAQ1    -3.8722    15.5093    49.8278 H     1 DB8   0.0800 
 38 HAQ2    -5.1280    14.6245    48.9288 H     1 DB8   0.0800 
 39 CAR     -4.2663    11.7194    49.9330 C.3   1 DB8   0.1100 
 40 HAR1    -3.4512    11.5722    50.6415 H     1 DB8   0.0800 
 41 HAR2    -4.7149    10.7561    49.6901 H     1 DB8   0.0800 
 42 CAS     -4.7003    13.8494    50.8562 C.3   1 DB8   0.1100 
 43 HAS1    -5.4473    14.4592    51.3645 H     1 DB8   0.0800 
 44 HAS2    -3.8403    13.7078    51.5109 H     1 DB8   0.0800 
 45 NAT     -0.4304    20.2750    43.7490 N.ar  1 DB8  -0.6200 
 46 NAU      2.1493    17.9693    40.9757 N.pl3 1 DB8  -0.6000 
 47 HAU      2.0314    16.9677    40.9205 H     1 DB8   0.4000 
 48 OAV      0.7762    14.6939    44.8626 O.3   1 DB8  -0.3625 
 49 OAW     -0.8982    16.1715    46.6741 O.3   1 DB8  -0.3625 
 50 CAX      5.1183    20.2824    39.9857 C.ar  1 DB8   0.0825 
 51 CAY      5.1835    19.9956    38.5238 C.ar  1 DB8   0.1770 
 52 CAZ      3.2220    18.3571    38.6902 C.ar  1 DB8   0.1770 
 53 CBA      0.9596    20.2114    41.6120 C.ar  1 DB8   0.0730 
 54 CBB      3.1562    18.6296    40.1697 C.ar  1 DB8   0.1000 
 55 CBC      0.4857    16.0116    44.6158 C.ar  1 DB8   0.0825 
 56 CBD     -0.3756    16.7844    45.5398 C.ar  1 DB8   0.0825 
 57 CBE      1.3046    18.7609    41.8698 C.ar  1 DB8   0.1000 
 58 CBF     -0.1434    18.8973    44.0373 C.ar  1 DB8   0.3100 
 59 CBG      0.7311    18.0946    43.1085 C.ar  1 DB8   0.0000 
 60 NBH     -3.2509    13.7353    48.9438 N.4   1 DB8  -0.9590 
 61 HBH     -2.5003    13.5024    49.5782 H     1 DB8   0.4500 
 62 NBI     -5.2611    12.5831    50.5133 N.3   1 DB8  -0.8100 
 63 C01      5.6430    21.8850    41.6783 C.3   1 DB8   0.0400 
 64 H011     6.4632    22.5343    41.9848 H     1 DB8   0.0800 
 65 H012     5.4086    21.1904    42.4849 H     1 DB8   0.0800 
 66 H013     4.7649    22.4905    41.4536 H     1 DB8   0.0800 
@<TRIPOS>BOND
  1   1   2  1   
  2   1   3  1   
  3   1   4  1   
  4   1  48  1   
  5   5  50  1   
  6   5  63  1   
  7   6   7  1   
  8   6   8  1   
  9   6  23  1   
 10   6  60  1   
 11   9  12  3   
 12  10  51  1   
 13  11  52  1   
 14  12  53  1   
 15  13  14  1   
 16  13  45  ar  
 17  13  53  ar  
 18  15  16  1   
 19  15  51  ar  
 20  15  52  ar  
 21  17  18  1   
 22  17  50  ar  
 23  17  54  ar  
 24  19  20  1   
 25  19  56  ar  
 26  19  58  ar  
 27  21  22  1   
 28  21  55  ar  
 29  21  59  ar  
 30  23  24  1   
 31  23  25  1   
 32  23  26  1   
 33  26  27  1   
 34  26  28  1   
 35  26  49  1   
 36  29  30  1   
 37  29  31  1   
 38  29  32  1   
 39  29  62  1   
 40  33  34  1   
 41  33  35  1   
 42  33  39  1   
 43  33  60  1   
 44  36  37  1   
 45  36  38  1   
 46  36  42  1   
 47  36  60  1   
 48  39  40  1   
 49  39  41  1   
 50  39  62  1   
 51  42  43  1   
 52  42  44  1   
 53  42  62  1   
 54  45  58  ar  
 55  46  47  1   
 56  46  54  1   
 57  46  57  1   
 58  48  55  1   
 59  49  56  1   
 60  50  51  ar  
 61  52  54  ar  
 62  53  57  ar  
 63  55  56  ar  
 64  57  59  ar  
 65  58  59  ar  
 66  60  61  1   
 67  63  64  1   
 68  63  65  1   
 69  63  66  1   
@<TRIPOS>SUBSTRUCTURE
  1 DB8  21 GROUP 4 B **** 0

# MOE 2012.10 (io_trps.svl 2012.10)
