@<TRIPOS>MOLECULE
3ue4.B
189 126 63 0 0 
SMALL
USER_CHARGES


@<TRIPOS>ATOM
  1 O      -14.2373     6.2899    13.0508 O.3    1 HOH   0.0000 
  2 H1     -13.2773     6.2899    13.0508 H      1 HOH   0.0000 
  3 H2     -14.5276     6.9369    13.6979 H      1 HOH   0.0000 
  4 O       -6.6590     9.5162    34.0453 O.3    2 HOH   0.0000 
  5 H1      -5.6990     9.5162    34.0453 H      2 HOH   0.0000 
  6 H2      -6.9493    10.1632    34.6923 H      2 HOH   0.0000 
  7 O       -6.0103    -1.9749    16.5681 O.3    3 HOH   0.0000 
  8 H1      -5.0503    -1.9749    16.5681 H      3 HOH   0.0000 
  9 H2      -6.3006    -1.3278    17.2152 H      3 HOH   0.0000 
 10 O       -9.5543     7.0781    22.9208 O.3    4 HOH   0.0000 
 11 H1      -8.5943     7.0781    22.9208 H      4 HOH   0.0000 
 12 H2      -9.8446     7.7251    23.5678 H      4 HOH   0.0000 
 13 O      -14.9616     6.1088    22.5262 O.3    5 HOH   0.0000 
 14 H1     -14.0016     6.1088    22.5262 H      5 HOH   0.0000 
 15 H2     -15.2518     6.7559    23.1733 H      5 HOH   0.0000 
 16 O       -7.7827     5.9033    21.7129 O.3    6 HOH   0.0000 
 17 H1      -6.8227     5.9033    21.7129 H      6 HOH   0.0000 
 18 H2      -8.0730     6.5504    22.3599 H      6 HOH   0.0000 
 19 O       -3.5866    22.0456    16.7111 O.3    7 HOH   0.0000 
 20 H1      -2.6266    22.0456    16.7111 H      7 HOH   0.0000 
 21 H2      -3.8768    22.6927    17.3582 H      7 HOH   0.0000 
 22 O      -16.6236     9.4207    13.1973 O.3    8 HOH   0.0000 
 23 H1     -15.6636     9.4207    13.1973 H      8 HOH   0.0000 
 24 H2     -16.9139    10.0677    13.8444 H      8 HOH   0.0000 
 25 O       -4.0546    -1.7370    15.0876 O.3    9 HOH   0.0000 
 26 H1      -3.0946    -1.7370    15.0876 H      9 HOH   0.0000 
 27 H2      -4.3448    -1.0899    15.7347 H      9 HOH   0.0000 
 28 O        4.3408    23.6609    15.1841 O.3   10 HOH   0.0000 
 29 H1       5.3008    23.6609    15.1841 H     10 HOH   0.0000 
 30 H2       4.0505    24.3079    15.8311 H     10 HOH   0.0000 
 31 O      -20.6717     8.0242    47.7415 O.3   11 HOH   0.0000 
 32 H1     -19.7117     8.0242    47.7415 H     11 HOH   0.0000 
 33 H2     -20.9619     8.6712    48.3886 H     11 HOH   0.0000 
 34 O       -4.3507    15.2435    25.1486 O.3   12 HOH   0.0000 
 35 H1      -3.3907    15.2435    25.1486 H     12 HOH   0.0000 
 36 H2      -4.6410    15.8906    25.7957 H     12 HOH   0.0000 
 37 O       -5.0633     6.9920    34.1131 O.3   13 HOH   0.0000 
 38 H1      -4.1033     6.9920    34.1131 H     13 HOH   0.0000 
 39 H2      -5.3536     7.6391    34.7602 H     13 HOH   0.0000 
 40 O      -19.1978    -0.3767    14.5999 O.3   14 HOH   0.0000 
 41 H1     -18.2378    -0.3767    14.5999 H     14 HOH   0.0000 
 42 H2     -19.4881     0.2704    15.2469 H     14 HOH   0.0000 
 43 O        1.1622    14.3435    36.7439 O.3   15 HOH  -0.8340 
 44 H1       1.3232    15.2774    36.8779 H     15 HOH   0.4170 
 45 H2       0.9928    14.2614    35.8054 H     15 HOH   0.4170 
 46 O       -9.6309     6.3309    34.1073 O.3   16 HOH   0.0000 
 47 H1      -8.6709     6.3309    34.1073 H     16 HOH   0.0000 
 48 H2      -9.9212     6.9780    34.7543 H     16 HOH   0.0000 
 49 O       -1.8662     4.9969    31.1093 O.3   17 HOH   0.0000 
 50 H1      -0.9062     4.9969    31.1093 H     17 HOH   0.0000 
 51 H2      -2.1565     5.6439    31.7564 H     17 HOH   0.0000 
 52 O       -3.4360    14.4470    22.8438 O.3   18 HOH   0.0000 
 53 H1      -2.4760    14.4470    22.8438 H     18 HOH   0.0000 
 54 H2      -3.7263    15.0940    23.4908 H     18 HOH   0.0000 
 55 O       -4.4439    16.0117    15.2330 O.3   19 HOH   0.0000 
 56 H1      -3.4839    16.0117    15.2330 H     19 HOH   0.0000 
 57 H2      -4.7342    16.6587    15.8801 H     19 HOH   0.0000 
 58 O       -9.4472    -8.2067    15.5633 O.3   20 HOH   0.0000 
 59 H1      -8.4872    -8.2067    15.5633 H     20 HOH   0.0000 
 60 H2      -9.7375    -7.5597    16.2104 H     20 HOH   0.0000 
 61 O      -15.2997    12.1771    11.2022 O.3   21 HOH   0.0000 
 62 H1     -14.3397    12.1771    11.2022 H     21 HOH   0.0000 
 63 H2     -15.5900    12.8241    11.8492 H     21 HOH   0.0000 
 64 O       -3.7415    25.6085    20.2478 O.3   22 HOH   0.0000 
 65 H1      -2.7815    25.6085    20.2478 H     22 HOH   0.0000 
 66 H2      -4.0318    26.2556    20.8948 H     22 HOH   0.0000 
 67 O        2.0599    29.4492    35.9608 O.3   23 HOH   0.0000 
 68 H1       3.0199    29.4492    35.9608 H     23 HOH   0.0000 
 69 H2       1.7696    30.0963    36.6078 H     23 HOH   0.0000 
 70 O      -14.9122     4.4641    40.0747 O.3   24 HOH   0.0000 
 71 H1     -13.9522     4.4641    40.0747 H     24 HOH   0.0000 
 72 H2     -15.2025     5.1111    40.7218 H     24 HOH   0.0000 
 73 O       -2.7499    35.3691    30.1080 O.3   25 HOH   0.0000 
 74 H1      -1.7899    35.3691    30.1080 H     25 HOH   0.0000 
 75 H2      -3.0401    36.0162    30.7551 H     25 HOH   0.0000 
 76 O      -13.1074    20.3440    46.4068 O.3   26 HOH   0.0000 
 77 H1     -12.1474    20.3440    46.4068 H     26 HOH   0.0000 
 78 H2     -13.3977    20.9911    47.0539 H     26 HOH   0.0000 
 79 O       -1.6050     5.8562    33.5274 O.3   27 HOH   0.0000 
 80 H1      -0.6450     5.8562    33.5274 H     27 HOH   0.0000 
 81 H2      -1.8953     6.5033    34.1744 H     27 HOH   0.0000 
 82 O       -0.3962    27.3694    46.9799 O.3   28 HOH   0.0000 
 83 H1       0.5638    27.3694    46.9799 H     28 HOH   0.0000 
 84 H2      -0.6865    28.0165    47.6270 H     28 HOH   0.0000 
 85 O        8.4599    35.4763    32.9552 O.3   29 HOH   0.0000 
 86 H1       9.4199    35.4763    32.9552 H     29 HOH   0.0000 
 87 H2       8.1697    36.1234    33.6023 H     29 HOH   0.0000 
 88 O      -14.7375    26.3083    42.9430 O.3   30 HOH   0.0000 
 89 H1     -13.7775    26.3083    42.9430 H     30 HOH   0.0000 
 90 H2     -15.0278    26.9554    43.5901 H     30 HOH   0.0000 
 91 O       -3.3428    11.6380    28.1728 O.3   31 HOH   0.0000 
 92 H1      -2.3828    11.6380    28.1728 H     31 HOH   0.0000 
 93 H2      -3.6331    12.2851    28.8198 H     31 HOH   0.0000 
 94 O       -0.6317    16.4075    52.2850 O.3   32 HOH  -0.8340 
 95 H1       0.2017    16.8722    52.3612 H     32 HOH   0.4170 
 96 H2      -1.1237    16.6678    53.0637 H     32 HOH   0.4170 
 97 O        8.2892     9.2266    18.5414 O.3   33 HOH   0.0000 
 98 H1       9.2492     9.2266    18.5414 H     33 HOH   0.0000 
 99 H2       7.9989     9.8737    19.1885 H     33 HOH   0.0000 
100 O      -15.4734    14.2000    48.6662 O.3   34 HOH   0.0000 
101 H1     -14.5134    14.2000    48.6662 H     34 HOH   0.0000 
102 H2     -15.7637    14.8471    49.3133 H     34 HOH   0.0000 
103 O       -0.9663    15.4018    38.1777 O.3   35 HOH  -0.8340 
104 H1      -0.3286    14.8104    37.7780 H     35 HOH   0.4170 
105 H2      -1.6165    15.5528    37.4916 H     35 HOH   0.4170 
106 O      -19.2951    22.7799    14.8951 O.3   36 HOH   0.0000 
107 H1     -18.3351    22.7799    14.8951 H     36 HOH   0.0000 
108 H2     -19.5853    23.4269    15.5421 H     36 HOH   0.0000 
109 O        9.1308    31.1094    29.3389 O.3   37 HOH   0.0000 
110 H1      10.0908    31.1094    29.3389 H     37 HOH   0.0000 
111 H2       8.8405    31.7565    29.9859 H     37 HOH   0.0000 
112 O        6.1878    22.9383    16.8590 O.3   38 HOH   0.0000 
113 H1       7.1478    22.9383    16.8590 H     38 HOH   0.0000 
114 H2       5.8975    23.5854    17.5060 H     38 HOH   0.0000 
115 O      -21.4441    25.3039    21.4735 O.3   39 HOH   0.0000 
116 H1     -20.4841    25.3039    21.4735 H     39 HOH   0.0000 
117 H2     -21.7344    25.9510    22.1205 H     39 HOH   0.0000 
118 O       -4.3421    12.5142    21.4263 O.3   40 HOH   0.0000 
119 H1      -3.3821    12.5142    21.4263 H     40 HOH   0.0000 
120 H2      -4.6324    13.1613    22.0734 H     40 HOH   0.0000 
121 O       -9.2631    -0.8935    10.9582 O.3   41 HOH   0.0000 
122 H1      -8.3031    -0.8935    10.9582 H     41 HOH   0.0000 
123 H2      -9.5534    -0.2465    11.6053 H     41 HOH   0.0000 
124 O       -6.8525    -1.3812    11.5336 O.3   42 HOH   0.0000 
125 H1      -5.8925    -1.3812    11.5336 H     42 HOH   0.0000 
126 H2      -7.1428    -0.7342    12.1807 H     42 HOH   0.0000 
127 O      -11.8978    -8.1688    29.4717 O.3   43 HOH   0.0000 
128 H1     -10.9378    -8.1688    29.4717 H     43 HOH   0.0000 
129 H2     -12.1881    -7.5218    30.1188 H     43 HOH   0.0000 
130 O        2.6349    15.0593    40.7873 O.3   44 HOH  -0.8340 
131 H1       3.4219    14.5314    40.9224 H     44 HOH   0.4170 
132 H2       2.2040    14.6588    40.0323 H     44 HOH   0.4170 
133 O        7.3331    21.0726    28.0580 O.3   45 HOH   0.0000 
134 H1       8.2931    21.0726    28.0580 H     45 HOH   0.0000 
135 H2       7.0429    21.7196    28.7050 H     45 HOH   0.0000 
136 O       -6.5134     3.2549    33.1767 O.3   46 HOH   0.0000 
137 H1      -5.5534     3.2549    33.1767 H     46 HOH   0.0000 
138 H2      -6.8037     3.9019    33.8238 H     46 HOH   0.0000 
139 O        1.6941    21.6572    36.4290 O.3   47 HOH  -0.8340 
140 H1       1.7235    22.6138    36.4487 H     47 HOH   0.4170 
141 H2       2.0076    21.3896    37.2929 H     47 HOH   0.4170 
142 O       -7.9806    10.1756    11.7585 O.3   48 HOH   0.0000 
143 H1      -7.0206    10.1756    11.7585 H     48 HOH   0.0000 
144 H2      -8.2709    10.8227    12.4056 H     48 HOH   0.0000 
145 O        1.2599    19.3634    31.2705 O.3   49 HOH   0.0000 
146 H1       2.2199    19.3634    31.2705 H     49 HOH   0.0000 
147 H2       0.9696    20.0104    31.9175 H     49 HOH   0.0000 
148 O       -9.5145    24.0514    17.3615 O.3   50 HOH   0.0000 
149 H1      -8.5545    24.0514    17.3615 H     50 HOH   0.0000 
150 H2      -9.8048    24.6985    18.0086 H     50 HOH   0.0000 
151 O        1.4652    28.1407    15.3248 O.3   51 HOH   0.0000 
152 H1       2.4252    28.1407    15.3248 H     51 HOH   0.0000 
153 H2       1.1749    28.7878    15.9719 H     51 HOH   0.0000 
154 O       -4.7080    17.6417    51.7907 O.3   52 HOH  -0.8340 
155 H1      -5.1681    18.3962    52.1584 H     52 HOH   0.4170 
156 H2      -4.9339    17.6529    50.8606 H     52 HOH   0.4170 
157 O      -14.4125     3.6816    43.2436 O.3   53 HOH   0.0000 
158 H1     -13.4525     3.6816    43.2436 H     53 HOH   0.0000 
159 H2     -14.7027     4.3286    43.8906 H     53 HOH   0.0000 
160 O      -20.6595     1.1961    16.5191 O.3   54 HOH   0.0000 
161 H1     -19.6995     1.1961    16.5191 H     54 HOH   0.0000 
162 H2     -20.9497     1.8432    17.1662 H     54 HOH   0.0000 
163 O       -2.1328    13.3566    43.5921 O.3   55 HOH  -0.8340 
164 H1      -2.1699    12.6715    44.2596 H     55 HOH   0.4170 
165 H2      -1.3141    13.8199    43.7691 H     55 HOH   0.4170 
166 O       24.4067    14.2953    35.3579 O.3   56 HOH   0.0000 
167 H1      25.3667    14.2953    35.3579 H     56 HOH   0.0000 
168 H2      24.1164    14.9424    36.0050 H     56 HOH   0.0000 
169 O       -4.6497    -9.3713    20.9559 O.3   57 HOH   0.0000 
170 H1      -3.6897    -9.3713    20.9559 H     57 HOH   0.0000 
171 H2      -4.9399    -8.7243    21.6029 H     57 HOH   0.0000 
172 O      -18.0984     9.5196    17.2848 O.3   58 HOH   0.0000 
173 H1     -17.1384     9.5196    17.2848 H     58 HOH   0.0000 
174 H2     -18.3886    10.1667    17.9318 H     58 HOH   0.0000 
175 O       -6.5715     9.1271    10.5358 O.3   59 HOH   0.0000 
176 H1      -5.6115     9.1271    10.5358 H     59 HOH   0.0000 
177 H2      -6.8618     9.7742    11.1828 H     59 HOH   0.0000 
178 O       -2.8126    16.5521    21.4958 O.3   60 HOH   0.0000 
179 H1      -1.8526    16.5521    21.4958 H     60 HOH   0.0000 
180 H2      -3.1029    17.1992    22.1429 H     60 HOH   0.0000 
181 O      -24.8238     4.6722    24.3552 O.3   61 HOH   0.0000 
182 H1     -23.8638     4.6722    24.3552 H     61 HOH   0.0000 
183 H2     -25.1141     5.3192    25.0022 H     61 HOH   0.0000 
184 O      -13.6307    30.7102    33.0225 O.3   62 HOH   0.0000 
185 H1     -12.6707    30.7102    33.0225 H     62 HOH   0.0000 
186 H2     -13.9210    31.3572    33.6695 H     62 HOH   0.0000 
187 O       24.0235    16.2672    32.8265 O.3   63 HOH   0.0000 
188 H1      24.9835    16.2672    32.8265 H     63 HOH   0.0000 
189 H2      23.7332    16.9143    33.4736 H     63 HOH   0.0000 
@<TRIPOS>BOND
  1   1   2  1   
  2   1   3  1   
  3   4   5  1   
  4   4   6  1   
  5   7   8  1   
  6   7   9  1   
  7  10  11  1   
  8  10  12  1   
  9  13  14  1   
 10  13  15  1   
 11  16  17  1   
 12  16  18  1   
 13  19  20  1   
 14  19  21  1   
 15  22  23  1   
 16  22  24  1   
 17  25  26  1   
 18  25  27  1   
 19  28  29  1   
 20  28  30  1   
 21  31  32  1   
 22  31  33  1   
 23  34  35  1   
 24  34  36  1   
 25  37  38  1   
 26  37  39  1   
 27  40  41  1   
 28  40  42  1   
 29  43  44  1   
 30  43  45  1   
 31  46  47  1   
 32  46  48  1   
 33  49  50  1   
 34  49  51  1   
 35  52  53  1   
 36  52  54  1   
 37  55  56  1   
 38  55  57  1   
 39  58  59  1   
 40  58  60  1   
 41  61  62  1   
 42  61  63  1   
 43  64  65  1   
 44  64  66  1   
 45  67  68  1   
 46  67  69  1   
 47  70  71  1   
 48  70  72  1   
 49  73  74  1   
 50  73  75  1   
 51  76  77  1   
 52  76  78  1   
 53  79  80  1   
 54  79  81  1   
 55  82  83  1   
 56  82  84  1   
 57  85  86  1   
 58  85  87  1   
 59  88  89  1   
 60  88  90  1   
 61  91  92  1   
 62  91  93  1   
 63  94  95  1   
 64  94  96  1   
 65  97  98  1   
 66  97  99  1   
 67 100 101  1   
 68 100 102  1   
 69 103 104  1   
 70 103 105  1   
 71 106 107  1   
 72 106 108  1   
 73 109 110  1   
 74 109 111  1   
 75 112 113  1   
 76 112 114  1   
 77 115 116  1   
 78 115 117  1   
 79 118 119  1   
 80 118 120  1   
 81 121 122  1   
 82 121 123  1   
 83 124 125  1   
 84 124 126  1   
 85 127 128  1   
 86 127 129  1   
 87 130 131  1   
 88 130 132  1   
 89 133 134  1   
 90 133 135  1   
 91 136 137  1   
 92 136 138  1   
 93 139 140  1   
 94 139 141  1   
 95 142 143  1   
 96 142 144  1   
 97 145 146  1   
 98 145 147  1   
 99 148 149  1   
100 148 150  1   
101 151 152  1   
102 151 153  1   
103 154 155  1   
104 154 156  1   
105 157 158  1   
106 157 159  1   
107 160 161  1   
108 160 162  1   
109 163 164  1   
110 163 165  1   
111 166 167  1   
112 166 168  1   
113 169 170  1   
114 169 171  1   
115 172 173  1   
116 172 174  1   
117 175 176  1   
118 175 177  1   
119 178 179  1   
120 178 180  1   
121 181 182  1   
122 181 183  1   
123 184 185  1   
124 184 186  1   
125 187 188  1   
126 187 189  1   
@<TRIPOS>SUBSTRUCTURE
  1 HOH   1 GROUP 4 B **** 0
  2 HOH   4 GROUP 4 B **** 0
  3 HOH   7 GROUP 4 B **** 0
  4 HOH  10 GROUP 4 B **** 0
  5 HOH  13 GROUP 4 B **** 0
  6 HOH  16 GROUP 4 B **** 0
  7 HOH  19 GROUP 4 B **** 0
  8 HOH  22 GROUP 4 B **** 0
  9 HOH  25 GROUP 4 B **** 0
 10 HOH  28 GROUP 4 B **** 0
 11 HOH  31 GROUP 4 B **** 0
 12 HOH  34 GROUP 4 B **** 0
 13 HOH  37 GROUP 4 B **** 0
 14 HOH  40 GROUP 4 B **** 0
 15 HOH  43 GROUP 4 B **** 0
 16 HOH  46 GROUP 4 B **** 0
 17 HOH  49 GROUP 4 B **** 0
 18 HOH  52 GROUP 4 B **** 0
 19 HOH  55 GROUP 4 B **** 0
 20 HOH  58 GROUP 4 B **** 0
 21 HOH  61 GROUP 4 B **** 0
 22 HOH  64 GROUP 4 B **** 0
 23 HOH  67 GROUP 4 B **** 0
 24 HOH  70 GROUP 4 B **** 0
 25 HOH  73 GROUP 4 B **** 0
 26 HOH  76 GROUP 4 B **** 0
 27 HOH  79 GROUP 4 B **** 0
 28 HOH  82 GROUP 4 B **** 0
 29 HOH  85 GROUP 4 B **** 0
 30 HOH  88 GROUP 4 B **** 0
 31 HOH  91 GROUP 4 B **** 0
 32 HOH  94 GROUP 4 B **** 0
 33 HOH  97 GROUP 4 B **** 0
 34 HOH 100 GROUP 4 B **** 0
 35 HOH 103 GROUP 4 B **** 0
 36 HOH 106 GROUP 4 B **** 0
 37 HOH 109 GROUP 4 B **** 0
 38 HOH 112 GROUP 4 B **** 0
 39 HOH 115 GROUP 4 B **** 0
 40 HOH 118 GROUP 4 B **** 0
 41 HOH 121 GROUP 4 B **** 0
 42 HOH 124 GROUP 4 B **** 0
 43 HOH 127 GROUP 4 B **** 0
 44 HOH 130 GROUP 4 B **** 0
 45 HOH 133 GROUP 4 B **** 0
 46 HOH 136 GROUP 4 B **** 0
 47 HOH 139 GROUP 4 B **** 0
 48 HOH 142 GROUP 4 B **** 0
 49 HOH 145 GROUP 4 B **** 0
 50 HOH 148 GROUP 4 B **** 0
 51 HOH 151 GROUP 4 B **** 0
 52 HOH 154 GROUP 4 B **** 0
 53 HOH 157 GROUP 4 B **** 0
 54 HOH 160 GROUP 4 B **** 0
 55 HOH 163 GROUP 4 B **** 0
 56 HOH 166 GROUP 4 B **** 0
 57 HOH 169 GROUP 4 B **** 0
 58 HOH 172 GROUP 4 B **** 0
 59 HOH 175 GROUP 4 B **** 0
 60 HOH 178 GROUP 4 B **** 0
 61 HOH 181 GROUP 4 B **** 0
 62 HOH 184 GROUP 4 B **** 0
 63 HOH 187 GROUP 4 B **** 0

# MOE 2012.10 (io_trps.svl 2012.10)
