@<TRIPOS>MOLECULE
4yc8.B
35 34 2 0 0 
SMALL
USER_CHARGES


@<TRIPOS>ATOM
  1 C1       3.1761    15.0080    26.7440 C.3   1 EDO   0.1200 
  2 O1       3.7717    14.0949    27.6477 O.3   1 EDO  -0.6800 
  3 HO1      3.7396    13.1995    27.2196 H     1 EDO   0.4000 
  4 C2       3.3351    16.4461    27.2930 C.3   1 EDO   0.1200 
  5 O2       3.0776    17.3834    26.2456 O.3   1 EDO  -0.6800 
  6 HO2      3.2439    18.2947    26.6035 H     1 EDO   0.4000 
  7 H11      3.5764    14.9218    25.7349 H     1 EDO   0.0800 
  8 H12      2.1269    14.7190    26.6973 H     1 EDO   0.0800 
  9 H21      2.5923    16.6579    28.0608 H     1 EDO   0.0800 
 10 H22      4.3151    16.5868    27.7473 H     1 EDO   0.0800 
 11 O1      -0.7066     5.9773    34.0372 O.3   2 MES  -0.5600 
 12 C2      -2.1317     5.8424    34.0679 C.3   2 MES   0.1200 
 13 C3      -2.5947     4.6755    33.2306 C.3   2 MES   0.3430 
 14 N4      -2.1250     4.8465    31.8256 N.4   2 MES  -0.9590 
 15 HN4     -2.5244     5.7120    31.4756 H     2 MES   0.4500 
 16 C5      -0.6391     5.0031    31.8082 C.3   2 MES   0.3430 
 17 C6      -0.2351     6.1558    32.6956 C.3   2 MES   0.1200 
 18 C7      -2.5935     3.7277    30.9397 C.3   2 MES   0.3430 
 19 C8      -2.5900     4.1815    29.5085 C.3   2 MES  -0.0548 
 20 S       -3.0932     2.9205    28.3884 S.o2  2 MES   1.3448 
 21 O1S     -4.0587     3.5339    27.4890 O.co2 2 MES  -0.8167 
 22 O2S     -1.8888     2.4835    27.6923 O.co2 2 MES  -0.8167 
 23 O3S     -3.6870     1.8581    29.1899 O.co2 2 MES  -0.8167 
 24 H21     -2.6333     6.7612    33.7723 H     2 MES   0.0800 
 25 H22     -2.3582     5.6917    35.1227 H     2 MES   0.0800 
 26 H31     -2.2335     3.7347    33.6415 H     2 MES   0.0800 
 27 H32     -3.6814     4.5956    33.2508 H     2 MES   0.0800 
 28 H51     -0.2695     5.1637    30.7973 H     2 MES   0.0800 
 29 H52     -0.1559     4.0819    32.1327 H     2 MES   0.0800 
 30 H61      0.8395     6.3280    32.6736 H     2 MES   0.0800 
 31 H62     -0.6960     7.0876    32.3695 H     2 MES   0.0800 
 32 H71     -1.9388     2.8668    31.0633 H     2 MES   0.0800 
 33 H72     -3.5898     3.4055    31.2427 H     2 MES   0.0800 
 34 H81     -3.2319     5.0496    29.3504 H     2 MES   0.0800 
 35 H82     -1.6086     4.5305    29.1822 H     2 MES   0.0800 
@<TRIPOS>BOND
  1   1   2  1   
  2   1   4  1   
  3   1   7  1   
  4   1   8  1   
  5   2   3  1   
  6   4   5  1   
  7   4   9  1   
  8   4  10  1   
  9   5   6  1   
 10  11  12  1   
 11  11  17  1   
 12  12  13  1   
 13  12  24  1   
 14  12  25  1   
 15  13  14  1   
 16  13  26  1   
 17  13  27  1   
 18  14  15  1   
 19  14  16  1   
 20  14  18  1   
 21  16  17  1   
 22  16  28  1   
 23  16  29  1   
 24  17  30  1   
 25  17  31  1   
 26  18  19  1   
 27  18  32  1   
 28  18  33  1   
 29  19  20  1   
 30  19  34  1   
 31  19  35  1   
 32  20  21  ar  
 33  20  22  ar  
 34  20  23  ar  
@<TRIPOS>SUBSTRUCTURE
  1 EDO   4 GROUP 4 B **** 0
  2 MES  18 GROUP 4 B **** 0

# MOE 2012.10 (io_trps.svl 2012.10)
