@<TRIPOS>MOLECULE
4yc8.B
68 72 1 0 0 
SMALL
USER_CHARGES


@<TRIPOS>ATOM
  1 O1       2.6917    18.1000    41.0260 O.2   1 Q4B7  -0.5700 
  2 C1       2.4791    19.2093    41.5155 C.2   1 Q4B7   0.7150 
  3 N1       3.2830    20.3070    41.3287 N.am  1 Q4B7  -0.5470 
  4 H1       3.0738    21.1069    41.9088 H     1 Q4B7   0.3700 
  5 C2       4.3641    20.4659    40.4326 C.ar  1 Q4B7   0.1170 
  6 C13      5.2566    21.5259    40.7505 C.ar  1 Q4B7  -0.1500 
  7 H13      5.0437    22.1594    41.5989 H     1 Q4B7   0.1500 
  8 C12      6.3931    21.7637    39.9958 C.ar  1 Q4B7  -0.1500 
  9 H12      7.0526    22.5821    40.2439 H     1 Q4B7   0.1500 
 10 C5       6.6755    20.9338    38.9119 C.ar  1 Q4B7   0.0825 
 11 O2       7.8466    21.2372    38.3148 O.3   1 Q4B7  -0.1650 
 12 C6       7.8751    21.3917    36.9585 C.ar  1 Q4B7   0.0825 
 13 C11      8.9031    20.6698    36.3218 C.ar  1 Q4B7  -0.1500 
 14 H11      9.5524    20.0194    36.8891 H     1 Q4B7   0.1500 
 15 C10      9.0659    20.8115    34.9436 C.ar  1 Q4B7  -0.1500 
 16 H10      9.8481    20.2683    34.4342 H     1 Q4B7   0.1500 
 17 C9       8.2166    21.6570    34.2201 C.ar  1 Q4B7  -0.1500 
 18 H9       8.3549    21.7674    33.1547 H     1 Q4B7   0.1500 
 19 C8       7.1827    22.3664    34.8654 C.ar  1 Q4B7  -0.1500 
 20 H8       6.5307    23.0073    34.2905 H     1 Q4B7   0.1500 
 21 C7       6.9969    22.2436    36.2512 C.ar  1 Q4B7  -0.1500 
 22 H7       6.2102    22.7814    36.7593 H     1 Q4B7   0.1500 
 23 C4       5.8390    19.8718    38.5589 C.ar  1 Q4B7  -0.1500 
 24 H4       6.0771    19.2448    37.7124 H     1 Q4B7   0.1500 
 25 C3       4.6789    19.6307    39.3243 C.ar  1 Q4B7  -0.1500 
 26 H3       4.0268    18.8088    39.0681 H     1 Q4B7   0.1500 
 27 C14      1.3676    19.3484    42.4789 C.2   1 Q4B7  -0.0450 
 28 C15      0.6267    20.4607    42.8629 C.2   1 Q4B7   0.0772 
 29 H15      0.8025    21.4489    42.4641 H     1 Q4B7   0.1500 
 30 N2      -0.3695    20.1883    43.8137 N.2   1 Q4B7  -0.5653 
 31 C16     -0.3188    18.8666    44.1186 C.2   1 Q4B7   0.4621 
 32 S        0.8617    17.9806    43.2455 S.3   1 Q4B7  -0.0800 
 33 N3      -1.0871    18.3449    45.1831 N.pl3 1 Q4B7  -0.5840 
 34 H3      -1.6759    18.9944    45.6846 H     1 Q4B7   0.4000 
 35 C17     -1.1084    16.9875    45.6147 C.ar  1 Q4B7   0.4100 
 36 C27     -1.9191    16.5712    46.7552 C.ar  1 Q4B7  -0.1500 
 37 H27     -2.5843    17.2544    47.2621 H     1 Q4B7   0.1500 
 38 C20     -1.7820    15.2036    47.1642 C.ar  1 Q4B7   0.4100 
 39 N5      -0.9590    14.2984    46.4849 N.ar  1 Q4B7  -0.6200 
 40 C18     -0.2450    14.7918    45.4219 C.ar  1 Q4B7   0.4765 
 41 C19      0.6667    13.8424    44.7114 C.3   1 Q4B7  -0.0965 
 42 H191     0.6009    12.8588    45.1764 H     1 Q4B7   0.0800 
 43 H192     1.6920    14.2068    44.7753 H     1 Q4B7   0.0800 
 44 H193     0.3714    13.7699    43.6646 H     1 Q4B7   0.0800 
 45 N4      -0.2799    16.0774    44.9578 N.ar  1 Q4B7  -0.6200 
 46 N6      -2.3378    14.6456    48.3731 N.pl3 1 Q4B7  -0.8382 
 47 C26     -3.2421    15.3321    49.3188 C.3   1 Q4B7   0.2091 
 48 H261    -3.3897    16.3653    49.0045 H     1 Q4B7   0.0800 
 49 H262    -2.8115    15.3148    50.3199 H     1 Q4B7   0.0800 
 50 C25     -4.5780    14.5962    49.3183 C.3   1 Q4B7   0.3430 
 51 H251    -5.0268    14.6648    48.3274 H     1 Q4B7   0.0800 
 52 H252    -5.2424    15.0551    50.0506 H     1 Q4B7   0.0800 
 53 N7      -4.3733    13.1561    49.6702 N.4   1 Q4B7  -0.9590 
 54 H7      -4.0245    13.1055    50.6166 H     1 Q4B7   0.4500 
 55 C22     -3.3595    12.5439    48.7544 C.3   1 Q4B7   0.3430 
 56 H221    -3.7158    12.6010    47.7259 H     1 Q4B7   0.0800 
 57 H222    -3.2047    11.5001    49.0278 H     1 Q4B7   0.0800 
 58 C21     -2.0518    13.3003    48.8807 C.3   1 Q4B7   0.2091 
 59 H211    -1.7340    13.3440    49.9224 H     1 Q4B7   0.0800 
 60 H212    -1.2747    12.8233    48.2835 H     1 Q4B7   0.0800 
 61 C23     -5.6714    12.3929    49.6324 C.3   1 Q4B7   0.3430 
 62 H231    -5.7976    11.9649    48.6378 H     1 Q4B7   0.0800 
 63 H232    -6.4899    13.0829    49.8374 H     1 Q4B7   0.0800 
 64 C24     -5.7107    11.2751    50.6514 C.3   1 Q4B7   0.1200 
 65 H241    -6.7331    10.9062    50.7322 H     1 Q4B7   0.0800 
 66 H242    -5.3880    11.6655    51.6167 H     1 Q4B7   0.0800 
 67 O3      -4.8544    10.1909    50.2799 O.3   1 Q4B7  -0.6800 
 68 H3      -3.9594    10.5337    50.2247 H     1 Q4B7   0.4000 
@<TRIPOS>BOND
  1   1   2  2   
  2   2   3  am  
  3   2  27  1   
  4   3   4  1   
  5   3   5  1   
  6   5   6  ar  
  7   5  25  ar  
  8   6   7  1   
  9   6   8  ar  
 10   8   9  1   
 11   8  10  ar  
 12  10  11  1   
 13  10  23  ar  
 14  11  12  1   
 15  12  13  ar  
 16  12  21  ar  
 17  13  14  1   
 18  13  15  ar  
 19  15  16  1   
 20  15  17  ar  
 21  17  18  1   
 22  17  19  ar  
 23  19  20  1   
 24  19  21  ar  
 25  21  22  1   
 26  23  24  1   
 27  23  25  ar  
 28  25  26  1   
 29  27  28  2   
 30  27  32  1   
 31  28  29  1   
 32  28  30  1   
 33  30  31  2   
 34  31  32  1   
 35  31  33  1   
 36  33  34  1   
 37  33  35  1   
 38  35  36  ar  
 39  35  45  ar  
 40  36  37  1   
 41  36  38  ar  
 42  38  39  ar  
 43  38  46  1   
 44  39  40  ar  
 45  40  41  1   
 46  40  45  ar  
 47  41  42  1   
 48  41  43  1   
 49  41  44  1   
 50  46  47  1   
 51  46  58  1   
 52  47  48  1   
 53  47  49  1   
 54  47  50  1   
 55  50  51  1   
 56  50  52  1   
 57  50  53  1   
 58  53  54  1   
 59  53  55  1   
 60  53  61  1   
 61  55  56  1   
 62  55  57  1   
 63  55  58  1   
 64  58  59  1   
 65  58  60  1   
 66  61  62  1   
 67  61  63  1   
 68  61  64  1   
 69  64  65  1   
 70  64  66  1   
 71  64  67  1   
 72  67  68  1   
@<TRIPOS>SUBSTRUCTURE
  1 Q4B7  32 GROUP 4 B **** 0

# MOE 2012.10 (io_trps.svl 2012.10)
