@<TRIPOS>MOLECULE
4yc8.B
15 10 5 0 0 
SMALL
NO_CHARGES


@<TRIPOS>ATOM
  1 O        4.7153    22.8811    15.7443 O.3   1 HOH   0.0000 
  2 H1       5.6753    22.8811    15.7443 H     1 HOH   0.0000 
  3 H2       4.4250    23.5281    16.3914 H     1 HOH   0.0000 
  4 O      -18.0995     9.4096    17.4039 O.3   2 HOH   0.0000 
  5 H1     -17.1395     9.4096    17.4039 H     2 HOH   0.0000 
  6 H2     -18.3898    10.0566    18.0510 H     2 HOH   0.0000 
  7 O       -4.1795    -0.6101    19.5771 O.3   3 HOH   0.0000 
  8 H1      -3.2195    -0.6101    19.5771 H     3 HOH   0.0000 
  9 H2      -4.4697     0.0369    20.2241 H     3 HOH   0.0000 
 10 O      -18.2811    29.2339    19.3573 O.3   4 HOH   0.0000 
 11 H1     -17.3211    29.2339    19.3573 H     4 HOH   0.0000 
 12 H2     -18.5714    29.8809    20.0044 H     4 HOH   0.0000 
 13 O      -14.8741    14.7815    48.4865 O.3   5 HOH   0.0000 
 14 H1     -13.9141    14.7815    48.4865 H     5 HOH   0.0000 
 15 H2     -15.1644    15.4286    49.1336 H     5 HOH   0.0000 
@<TRIPOS>BOND
  1   1   2  1   
  2   1   3  1   
  3   4   5  1   
  4   4   6  1   
  5   7   8  1   
  6   7   9  1   
  7  10  11  1   
  8  10  12  1   
  9  13  14  1   
 10  13  15  1   
@<TRIPOS>SUBSTRUCTURE
  1 HOH   1 GROUP 4 B **** 0
  2 HOH   4 GROUP 4 B **** 0
  3 HOH   7 GROUP 4 B **** 0
  4 HOH  10 GROUP 4 B **** 0
  5 HOH  13 GROUP 4 B **** 0

# MOE 2012.10 (io_trps.svl 2012.10)
