@<TRIPOS>MOLECULE
4twp.B
46 49 1 0 0 
SMALL
USER_CHARGES


@<TRIPOS>ATOM
  1 O81      4.7376    18.3442    36.9244 O.2   1 AXI  -0.5700 
  2 C80      4.3219    17.2040    36.9763 C.2   1 AXI   0.5438 
  3 N82      5.2355    16.1099    36.8936 N.am  1 AXI  -0.7301 
  4 H82      4.8953    15.1598    36.9341 H     1 AXI   0.3700 
  5 C88      6.6531    16.3707    36.7514 C.3   1 AXI   0.0601 
  6 H881     6.8239    17.4469    36.7268 H     1 AXI   0.0800 
  7 H882     7.0134    15.9244    35.8245 H     1 AXI   0.0800 
  8 H883     7.1888    15.9370    37.5958 H     1 AXI   0.0800 
  9 C23      2.8623    16.9442    37.1213 C.ar  1 AXI   0.0862 
 10 C22      2.2541    15.9809    36.3265 C.ar  1 AXI  -0.1500 
 11 H22      2.8402    15.4258    35.6092 H     1 AXI   0.1500 
 12 C21      0.8971    15.7306    36.4520 C.ar  1 AXI  -0.1500 
 13 H21      0.4273    14.9810    35.8324 H     1 AXI   0.1500 
 14 C20      0.1372    16.4458    37.3775 C.ar  1 AXI  -0.1500 
 15 H20     -0.9205    16.2506    37.4759 H     1 AXI   0.1500 
 16 C18      2.1003    17.6676    38.0525 C.ar  1 AXI   0.1015 
 17 C19      0.7479    17.4154    38.1770 C.ar  1 AXI  -0.1500 
 18 H19      0.1608    17.9693    38.8946 H     1 AXI   0.1500 
 19 S24      2.8670    18.9071    39.0865 S.3   1 AXI  -0.2030 
 20 C07      1.9345    18.9990    40.6174 C.ar  1 AXI   0.1015 
 21 C08      1.6664    17.8256    41.3383 C.ar  1 AXI  -0.1500 
 22 H08      2.0246    16.8746    40.9726 H     1 AXI   0.1500 
 23 C09      0.9303    17.8855    42.5389 C.ar  1 AXI  -0.1500 
 24 H09      0.7264    16.9816    43.0937 H     1 AXI   0.1500 
 25 C12      1.4693    20.2237    41.0835 C.ar  1 AXI  -0.1500 
 26 H12      1.6706    21.1269    40.5266 H     1 AXI   0.1500 
 27 C11      0.7177    20.2846    42.3114 C.ar  1 AXI  -0.1516 
 28 N15      0.1444    21.3389    43.0023 N.pl3 1 AXI   0.2996 
 29 H15      0.1719    22.3089    42.7224 H     1 AXI   0.2700 
 30 N14     -0.4684    20.8492    44.1322 N.2   1 AXI  -0.7068 
 31 C13     -0.3014    19.5141    44.1792 C.2   1 AXI   0.2428 
 32 C10      0.4566    19.1367    43.0187 C.ar  1 AXI   0.0000 
 33 C16     -0.8201    18.6007    45.2598 C.2   1 AXI  -0.1040 
 34 H16     -1.2834    19.0269    46.1374 H     1 AXI   0.1500 
 35 C17     -0.7144    17.2384    45.1486 C.2   1 AXI  -0.1784 
 36 H17     -0.1837    16.7971    44.3179 H     1 AXI   0.1500 
 37 C02     -1.3471    16.3660    46.1983 C.ar  1 AXI   0.3384 
 38 N03     -1.2868    15.0313    46.0820 N.ar  1 AXI  -0.6200 
 39 C04     -1.8413    14.2173    46.9992 C.ar  1 AXI   0.1600 
 40 H04     -1.7791    13.1454    46.8828 H     1 AXI   0.1500 
 41 C05     -2.4919    14.7626    48.0928 C.ar  1 AXI  -0.1500 
 42 H05     -2.9395    14.1157    48.8327 H     1 AXI   0.1500 
 43 C06     -2.5688    16.1396    48.2379 C.ar  1 AXI  -0.1500 
 44 H06     -3.0745    16.5722    49.0885 H     1 AXI   0.1500 
 45 C01     -1.9877    16.9551    47.2765 C.ar  1 AXI  -0.1500 
 46 H01     -2.0341    18.0302    47.3674 H     1 AXI   0.1500 
@<TRIPOS>BOND
  1   1   2  2   
  2   2   3  am  
  3   2   9  1   
  4   3   4  1   
  5   3   5  1   
  6   5   6  1   
  7   5   7  1   
  8   5   8  1   
  9   9  10  ar  
 10   9  16  ar  
 11  10  11  1   
 12  10  12  ar  
 13  12  13  1   
 14  12  14  ar  
 15  14  15  1   
 16  14  17  ar  
 17  16  17  ar  
 18  16  19  1   
 19  17  18  1   
 20  19  20  1   
 21  20  21  ar  
 22  20  25  ar  
 23  21  22  1   
 24  21  23  ar  
 25  23  24  1   
 26  23  32  ar  
 27  25  26  1   
 28  25  27  ar  
 29  27  28  1   
 30  27  32  ar  
 31  28  29  1   
 32  28  30  1   
 33  30  31  2   
 34  31  32  1   
 35  31  33  1   
 36  33  34  1   
 37  33  35  2   
 38  35  36  1   
 39  35  37  1   
 40  37  38  ar  
 41  37  45  ar  
 42  38  39  ar  
 43  39  40  1   
 44  39  41  ar  
 45  41  42  1   
 46  41  43  ar  
 47  43  44  1   
 48  43  45  ar  
 49  45  46  1   
@<TRIPOS>SUBSTRUCTURE
  1 AXI  21 GROUP 4 B **** 0

# MOE 2012.10 (io_trps.svl 2012.10)
