@<TRIPOS>MOLECULE
4twp.B
168 112 56 0 0 
SMALL
USER_CHARGES


@<TRIPOS>ATOM
  1 O        5.5732    27.9371    11.8297 O.3    1 HOH   0.0000 
  2 H1       6.5332    27.9371    11.8297 H      1 HOH   0.0000 
  3 H2       5.2829    28.5842    12.4768 H      1 HOH   0.0000 
  4 O       21.8304    24.6739    24.4755 O.3    2 HOH   0.0000 
  5 H1      22.7904    24.6739    24.4755 H      2 HOH   0.0000 
  6 H2      21.5401    25.3209    25.1226 H      2 HOH   0.0000 
  7 O        5.7163    17.8536    33.0766 O.3    3 HOH  -0.8340 
  8 H1       4.8575    17.5216    33.3380 H      3 HOH   0.4170 
  9 H2       5.5744    18.7866    32.9163 H      3 HOH   0.4170 
 10 O        1.8109    19.1697    28.4576 O.3    4 HOH   0.0000 
 11 H1       2.7709    19.1697    28.4576 H      4 HOH   0.0000 
 12 H2       1.5206    19.8168    29.1047 H      4 HOH   0.0000 
 13 O      -18.3206    29.3553    32.2203 O.3    5 HOH   0.0000 
 14 H1     -17.3606    29.3553    32.2203 H      5 HOH   0.0000 
 15 H2     -18.6109    30.0024    32.8673 H      5 HOH   0.0000 
 16 O        5.7220    12.3080    42.6662 O.3    6 HOH   0.0000 
 17 H1       6.6820    12.3080    42.6662 H      6 HOH   0.0000 
 18 H2       5.4317    12.9551    43.3132 H      6 HOH   0.0000 
 19 O        2.1861    15.6024    53.4448 O.3    7 HOH   0.0000 
 20 H1       3.1461    15.6024    53.4448 H      7 HOH   0.0000 
 21 H2       1.8958    16.2495    54.0919 H      7 HOH   0.0000 
 22 O        1.4585    29.5351    35.6442 O.3    8 HOH   0.0000 
 23 H1       2.4185    29.5351    35.6442 H      8 HOH   0.0000 
 24 H2       1.1682    30.1822    36.2913 H      8 HOH   0.0000 
 25 O       -6.2444     9.8129    33.9598 O.3    9 HOH   0.0000 
 26 H1      -5.2844     9.8129    33.9598 H      9 HOH   0.0000 
 27 H2      -6.5347    10.4600    34.6069 H      9 HOH   0.0000 
 28 O       -3.9597    12.5071    27.2719 O.3   10 HOH   0.0000 
 29 H1      -2.9997    12.5071    27.2719 H     10 HOH   0.0000 
 30 H2      -4.2500    13.1542    27.9189 H     10 HOH   0.0000 
 31 O       -5.2493    29.6594    38.3216 O.3   11 HOH   0.0000 
 32 H1      -4.2893    29.6594    38.3216 H     11 HOH   0.0000 
 33 H2      -5.5395    30.3064    38.9686 H     11 HOH   0.0000 
 34 O       -4.8126    15.8853    15.0615 O.3   12 HOH   0.0000 
 35 H1      -3.8526    15.8853    15.0615 H     12 HOH   0.0000 
 36 H2      -5.1029    16.5323    15.7085 H     12 HOH   0.0000 
 37 O      -15.6078     0.0753    26.4439 O.3   13 HOH   0.0000 
 38 H1     -14.6478     0.0753    26.4439 H     13 HOH   0.0000 
 39 H2     -15.8980     0.7223    27.0910 H     13 HOH   0.0000 
 40 O       -7.2446     6.0887    21.7493 O.3   14 HOH   0.0000 
 41 H1      -6.2846     6.0887    21.7493 H     14 HOH   0.0000 
 42 H2      -7.5348     6.7357    22.3963 H     14 HOH   0.0000 
 43 O      -18.1754    -1.0420    14.4933 O.3   15 HOH   0.0000 
 44 H1     -17.2154    -1.0420    14.4933 H     15 HOH   0.0000 
 45 H2     -18.4657    -0.3950    15.1403 H     15 HOH   0.0000 
 46 O       -8.3165    -7.3884    24.1486 O.3   16 HOH   0.0000 
 47 H1      -7.3565    -7.3884    24.1486 H     16 HOH   0.0000 
 48 H2      -8.6068    -6.7413    24.7956 H     16 HOH   0.0000 
 49 O       -9.0834     6.2909    34.1250 O.3   17 HOH   0.0000 
 50 H1      -8.1234     6.2909    34.1250 H     17 HOH   0.0000 
 51 H2      -9.3736     6.9380    34.7720 H     17 HOH   0.0000 
 52 O       -5.0220    -1.8318    16.8599 O.3   18 HOH   0.0000 
 53 H1      -4.0620    -1.8318    16.8599 H     18 HOH   0.0000 
 54 H2      -5.3123    -1.1848    17.5069 H     18 HOH   0.0000 
 55 O      -13.7255     5.6080    13.5165 O.3   19 HOH   0.0000 
 56 H1     -12.7655     5.6080    13.5165 H     19 HOH   0.0000 
 57 H2     -14.0158     6.2550    14.1635 H     19 HOH   0.0000 
 58 O      -17.9478    29.0933    25.3565 O.3   20 HOH   0.0000 
 59 H1     -16.9878    29.0933    25.3565 H     20 HOH   0.0000 
 60 H2     -18.2381    29.7404    26.0036 H     20 HOH   0.0000 
 61 O      -20.8078    12.9935    16.7374 O.3   21 HOH   0.0000 
 62 H1     -19.8478    12.9935    16.7374 H     21 HOH   0.0000 
 63 H2     -21.0981    13.6406    17.3845 H     21 HOH   0.0000 
 64 O       -9.2590     6.8458    23.0215 O.3   22 HOH   0.0000 
 65 H1      -8.2990     6.8458    23.0215 H     22 HOH   0.0000 
 66 H2      -9.5493     7.4929    23.6686 H     22 HOH   0.0000 
 67 O      -15.4707    11.8589    11.6353 O.3   23 HOH   0.0000 
 68 H1     -14.5107    11.8589    11.6353 H     23 HOH   0.0000 
 69 H2     -15.7610    12.5059    12.2824 H     23 HOH   0.0000 
 70 O       -8.9112    29.7215    40.0596 O.3   24 HOH   0.0000 
 71 H1      -7.9512    29.7215    40.0596 H     24 HOH   0.0000 
 72 H2      -9.2015    30.3685    40.7067 H     24 HOH   0.0000 
 73 O       -2.9305    29.7268    35.1772 O.3   25 HOH   0.0000 
 74 H1      -1.9705    29.7268    35.1772 H     25 HOH   0.0000 
 75 H2      -3.2208    30.3738    35.8243 H     25 HOH   0.0000 
 76 O       -9.1242    -7.7949    12.9665 O.3   26 HOH   0.0000 
 77 H1      -8.1642    -7.7949    12.9665 H     26 HOH   0.0000 
 78 H2      -9.4145    -7.1478    13.6135 H     26 HOH   0.0000 
 79 O       -3.9136    -0.1487    19.4140 O.3   27 HOH   0.0000 
 80 H1      -2.9536    -0.1487    19.4140 H     27 HOH   0.0000 
 81 H2      -4.2039     0.4983    20.0611 H     27 HOH   0.0000 
 82 O       -4.1620    22.2740    16.1520 O.3   28 HOH   0.0000 
 83 H1      -3.2020    22.2740    16.1520 H     28 HOH   0.0000 
 84 H2      -4.4523    22.9210    16.7990 H     28 HOH   0.0000 
 85 O      -16.2046     9.0766    13.3338 O.3   29 HOH   0.0000 
 86 H1     -15.2446     9.0766    13.3338 H     29 HOH   0.0000 
 87 H2     -16.4949     9.7236    13.9808 H     29 HOH   0.0000 
 88 O      -14.1957    21.8532    50.0548 O.3   30 HOH   0.0000 
 89 H1     -13.2357    21.8532    50.0548 H     30 HOH   0.0000 
 90 H2     -14.4860    22.5003    50.7019 H     30 HOH   0.0000 
 91 O       -8.0504    -8.2924    26.4757 O.3   31 HOH   0.0000 
 92 H1      -7.0904    -8.2924    26.4757 H     31 HOH   0.0000 
 93 H2      -8.3407    -7.6453    27.1228 H     31 HOH   0.0000 
 94 O      -17.8696     8.8542    18.1150 O.3   32 HOH   0.0000 
 95 H1     -16.9096     8.8542    18.1150 H     32 HOH   0.0000 
 96 H2     -18.1599     9.5013    18.7620 H     32 HOH   0.0000 
 97 O       -5.3883    12.7602    22.1169 O.3   33 HOH   0.0000 
 98 H1      -4.4283    12.7602    22.1169 H     33 HOH   0.0000 
 99 H2      -5.6785    13.4072    22.7639 H     33 HOH   0.0000 
100 O        7.8306    17.8486    13.0700 O.3   34 HOH   0.0000 
101 H1       8.7906    17.8486    13.0700 H     34 HOH   0.0000 
102 H2       7.5403    18.4956    13.7170 H     34 HOH   0.0000 
103 O       -7.4182    -8.2501    15.7363 O.3   35 HOH   0.0000 
104 H1      -6.4582    -8.2501    15.7363 H     35 HOH   0.0000 
105 H2      -7.7084    -7.6030    16.3833 H     35 HOH   0.0000 
106 O        1.1534    12.5531    49.1411 O.3   36 HOH  -0.8340 
107 H1       1.7021    11.8877    49.5562 H     36 HOH   0.4170 
108 H2       0.5186    12.7956    49.8153 H     36 HOH   0.4170 
109 O      -13.1060    20.0643    47.0262 O.3   37 HOH   0.0000 
110 H1     -12.1460    20.0643    47.0262 H     37 HOH   0.0000 
111 H2     -13.3962    20.7114    47.6732 H     37 HOH   0.0000 
112 O      -14.3575     5.5391    22.9298 O.3   38 HOH   0.0000 
113 H1     -13.3975     5.5391    22.9298 H     38 HOH   0.0000 
114 H2     -14.6477     6.1861    23.5769 H     38 HOH   0.0000 
115 O      -10.5382    23.6086    17.3522 O.3   39 HOH   0.0000 
116 H1      -9.5782    23.6086    17.3522 H     39 HOH   0.0000 
117 H2     -10.8285    24.2557    17.9993 H     39 HOH   0.0000 
118 O      -18.5203    13.3540    32.6375 O.3   40 HOH   0.0000 
119 H1     -17.5603    13.3540    32.6375 H     40 HOH   0.0000 
120 H2     -18.8105    14.0011    33.2846 H     40 HOH   0.0000 
121 O       11.9335    31.7162    31.0444 O.3   41 HOH   0.0000 
122 H1      12.8935    31.7162    31.0444 H     41 HOH   0.0000 
123 H2      11.6433    32.3632    31.6915 H     41 HOH   0.0000 
124 O      -19.3040    16.0127    33.3295 O.3   42 HOH   0.0000 
125 H1     -18.3440    16.0127    33.3295 H     42 HOH   0.0000 
126 H2     -19.5943    16.6597    33.9765 H     42 HOH   0.0000 
127 O       -0.5180    28.5649    34.3602 O.3   43 HOH   0.0000 
128 H1       0.4420    28.5649    34.3602 H     43 HOH   0.0000 
129 H2      -0.8082    29.2119    35.0073 H     43 HOH   0.0000 
130 O      -13.4577    27.6221    38.5776 O.3   44 HOH   0.0000 
131 H1     -12.4977    27.6221    38.5776 H     44 HOH   0.0000 
132 H2     -13.7480    28.2691    39.2246 H     44 HOH   0.0000 
133 O      -22.1663    12.8862    18.5993 O.3   45 HOH   0.0000 
134 H1     -21.2063    12.8862    18.5993 H     45 HOH   0.0000 
135 H2     -22.4566    13.5332    19.2463 H     45 HOH   0.0000 
136 O      -12.0677    27.2304    45.8066 O.3   46 HOH   0.0000 
137 H1     -11.1077    27.2304    45.8066 H     46 HOH   0.0000 
138 H2     -12.3580    27.8775    46.4537 H     46 HOH   0.0000 
139 O      -11.9602    30.7405    29.2192 O.3   47 HOH   0.0000 
140 H1     -11.0002    30.7405    29.2192 H     47 HOH   0.0000 
141 H2     -12.2504    31.3875    29.8662 H     47 HOH   0.0000 
142 O       13.9678    41.6077    37.7353 O.3   48 HOH   0.0000 
143 H1      14.9278    41.6077    37.7353 H     48 HOH   0.0000 
144 H2      13.6775    42.2547    38.3824 H     48 HOH   0.0000 
145 O      -17.5642     1.0225    27.3538 O.3   49 HOH   0.0000 
146 H1     -16.6042     1.0225    27.3538 H     49 HOH   0.0000 
147 H2     -17.8545     1.6696    28.0009 H     49 HOH   0.0000 
148 O       -2.9331     3.4570    27.7606 O.3   50 HOH   0.0000 
149 H1      -1.9731     3.4570    27.7606 H     50 HOH   0.0000 
150 H2      -3.2234     4.1041    28.4077 H     50 HOH   0.0000 
151 O        6.4554    15.8951    32.1034 O.3   51 HOH  -0.8340 
152 H1       5.6649    15.5228    31.7127 H     51 HOH   0.4170 
153 H2       6.1444    16.6528    32.5988 H     51 HOH   0.4170 
154 O      -22.6250     7.6469    51.1818 O.3   52 HOH   0.0000 
155 H1     -21.6650     7.6469    51.1818 H     52 HOH   0.0000 
156 H2     -22.9153     8.2939    51.8289 H     52 HOH   0.0000 
157 O       -6.5131     4.9851    34.3501 O.3   53 HOH   0.0000 
158 H1      -5.5531     4.9851    34.3501 H     53 HOH   0.0000 
159 H2      -6.8034     5.6322    34.9972 H     53 HOH   0.0000 
160 O      -21.8695    15.0899    33.4823 O.3   54 HOH   0.0000 
161 H1     -20.9095    15.0899    33.4823 H     54 HOH   0.0000 
162 H2     -22.1598    15.7370    34.1294 H     54 HOH   0.0000 
163 O      -24.8599    27.5354    37.8640 O.3   55 HOH   0.0000 
164 H1     -23.8999    27.5354    37.8640 H     55 HOH   0.0000 
165 H2     -25.1502    28.1825    38.5110 H     55 HOH   0.0000 
166 O      -21.1887    12.6064    32.8183 O.3   56 HOH   0.0000 
167 H1     -20.2287    12.6064    32.8183 H     56 HOH   0.0000 
168 H2     -21.4790    13.2535    33.4654 H     56 HOH   0.0000 
@<TRIPOS>BOND
  1   1   2  1   
  2   1   3  1   
  3   4   5  1   
  4   4   6  1   
  5   7   8  1   
  6   7   9  1   
  7  10  11  1   
  8  10  12  1   
  9  13  14  1   
 10  13  15  1   
 11  16  17  1   
 12  16  18  1   
 13  19  20  1   
 14  19  21  1   
 15  22  23  1   
 16  22  24  1   
 17  25  26  1   
 18  25  27  1   
 19  28  29  1   
 20  28  30  1   
 21  31  32  1   
 22  31  33  1   
 23  34  35  1   
 24  34  36  1   
 25  37  38  1   
 26  37  39  1   
 27  40  41  1   
 28  40  42  1   
 29  43  44  1   
 30  43  45  1   
 31  46  47  1   
 32  46  48  1   
 33  49  50  1   
 34  49  51  1   
 35  52  53  1   
 36  52  54  1   
 37  55  56  1   
 38  55  57  1   
 39  58  59  1   
 40  58  60  1   
 41  61  62  1   
 42  61  63  1   
 43  64  65  1   
 44  64  66  1   
 45  67  68  1   
 46  67  69  1   
 47  70  71  1   
 48  70  72  1   
 49  73  74  1   
 50  73  75  1   
 51  76  77  1   
 52  76  78  1   
 53  79  80  1   
 54  79  81  1   
 55  82  83  1   
 56  82  84  1   
 57  85  86  1   
 58  85  87  1   
 59  88  89  1   
 60  88  90  1   
 61  91  92  1   
 62  91  93  1   
 63  94  95  1   
 64  94  96  1   
 65  97  98  1   
 66  97  99  1   
 67 100 101  1   
 68 100 102  1   
 69 103 104  1   
 70 103 105  1   
 71 106 107  1   
 72 106 108  1   
 73 109 110  1   
 74 109 111  1   
 75 112 113  1   
 76 112 114  1   
 77 115 116  1   
 78 115 117  1   
 79 118 119  1   
 80 118 120  1   
 81 121 122  1   
 82 121 123  1   
 83 124 125  1   
 84 124 126  1   
 85 127 128  1   
 86 127 129  1   
 87 130 131  1   
 88 130 132  1   
 89 133 134  1   
 90 133 135  1   
 91 136 137  1   
 92 136 138  1   
 93 139 140  1   
 94 139 141  1   
 95 142 143  1   
 96 142 144  1   
 97 145 146  1   
 98 145 147  1   
 99 148 149  1   
100 148 150  1   
101 151 152  1   
102 151 153  1   
103 154 155  1   
104 154 156  1   
105 157 158  1   
106 157 159  1   
107 160 161  1   
108 160 162  1   
109 163 164  1   
110 163 165  1   
111 166 167  1   
112 166 168  1   
@<TRIPOS>SUBSTRUCTURE
  1 HOH   1 GROUP 4 B **** 0
  2 HOH   4 GROUP 4 B **** 0
  3 HOH   7 GROUP 4 B **** 0
  4 HOH  10 GROUP 4 B **** 0
  5 HOH  13 GROUP 4 B **** 0
  6 HOH  16 GROUP 4 B **** 0
  7 HOH  19 GROUP 4 B **** 0
  8 HOH  22 GROUP 4 B **** 0
  9 HOH  25 GROUP 4 B **** 0
 10 HOH  28 GROUP 4 B **** 0
 11 HOH  31 GROUP 4 B **** 0
 12 HOH  34 GROUP 4 B **** 0
 13 HOH  37 GROUP 4 B **** 0
 14 HOH  40 GROUP 4 B **** 0
 15 HOH  43 GROUP 4 B **** 0
 16 HOH  46 GROUP 4 B **** 0
 17 HOH  49 GROUP 4 B **** 0
 18 HOH  52 GROUP 4 B **** 0
 19 HOH  55 GROUP 4 B **** 0
 20 HOH  58 GROUP 4 B **** 0
 21 HOH  61 GROUP 4 B **** 0
 22 HOH  64 GROUP 4 B **** 0
 23 HOH  67 GROUP 4 B **** 0
 24 HOH  70 GROUP 4 B **** 0
 25 HOH  73 GROUP 4 B **** 0
 26 HOH  76 GROUP 4 B **** 0
 27 HOH  79 GROUP 4 B **** 0
 28 HOH  82 GROUP 4 B **** 0
 29 HOH  85 GROUP 4 B **** 0
 30 HOH  88 GROUP 4 B **** 0
 31 HOH  91 GROUP 4 B **** 0
 32 HOH  94 GROUP 4 B **** 0
 33 HOH  97 GROUP 4 B **** 0
 34 HOH 100 GROUP 4 B **** 0
 35 HOH 103 GROUP 4 B **** 0
 36 HOH 106 GROUP 4 B **** 0
 37 HOH 109 GROUP 4 B **** 0
 38 HOH 112 GROUP 4 B **** 0
 39 HOH 115 GROUP 4 B **** 0
 40 HOH 118 GROUP 4 B **** 0
 41 HOH 121 GROUP 4 B **** 0
 42 HOH 124 GROUP 4 B **** 0
 43 HOH 127 GROUP 4 B **** 0
 44 HOH 130 GROUP 4 B **** 0
 45 HOH 133 GROUP 4 B **** 0
 46 HOH 136 GROUP 4 B **** 0
 47 HOH 139 GROUP 4 B **** 0
 48 HOH 142 GROUP 4 B **** 0
 49 HOH 145 GROUP 4 B **** 0
 50 HOH 148 GROUP 4 B **** 0
 51 HOH 151 GROUP 4 B **** 0
 52 HOH 154 GROUP 4 B **** 0
 53 HOH 157 GROUP 4 B **** 0
 54 HOH 160 GROUP 4 B **** 0
 55 HOH 163 GROUP 4 B **** 0
 56 HOH 166 GROUP 4 B **** 0

# MOE 2012.10 (io_trps.svl 2012.10)
