@<TRIPOS>MOLECULE
3cs9.D
61 65 1 0 0 
SMALL
USER_CHARGES


@<TRIPOS>ATOM
  1 O17      0.9068    22.7908    35.0349 O.2   1 NIL  -0.5700 
  2 C16      2.0626    23.2314    34.8976 C.2   1 NIL   0.5438 
  3 N14      2.5502    23.8724    33.7986 N.am  1 NIL  -0.5470 
  4 H14      3.4786    24.2644    33.8660 H     1 NIL   0.3700 
  5 C11      1.8747    24.0333    32.5867 C.ar  1 NIL   0.1170 
  6 C9       2.6166    24.2708    31.4020 C.ar  1 NIL  -0.1500 
  7 H9       3.6935    24.3300    31.4575 H     1 NIL   0.1500 
  8 C8       1.9730    24.4340    30.1354 C.ar  1 NIL  -0.0230 
  9 N51      2.7014    24.6342    28.9398 N.pl3 1 NIL   0.3262 
 10 C56      3.9559    25.2219    28.8110 C.2   1 NIL  -0.3016 
 11 H56      4.5407    25.6429    29.6155 H     1 NIL   0.1500 
 12 C55      4.3259    25.1767    27.4887 C.2   1 NIL   0.0462 
 13 C58      5.6449    25.7174    26.8996 C.3   1 NIL  -0.0590 
 14 H581     6.2479    26.1518    27.6970 H     1 NIL   0.0800 
 15 H582     5.4237    26.4813    26.1541 H     1 NIL   0.0800 
 16 H583     6.1952    24.9013    26.4313 H     1 NIL   0.0800 
 17 N54      3.3212    24.5583    26.7603 N.2   1 NIL  -0.5653 
 18 C52      2.3684    24.2513    27.6757 C.2   1 NIL   0.0365 
 19 H52      1.4419    23.7547    27.4279 H     1 NIL   0.1500 
 20 C6       0.5708    24.3498    30.1205 C.ar  1 NIL  -0.1500 
 21 H6       0.0467    24.4483    29.1813 H     1 NIL   0.1500 
 22 C12      0.4756    24.0102    32.5351 C.ar  1 NIL  -0.1500 
 23 H12     -0.1035    23.8931    33.4392 H     1 NIL   0.1500 
 24 C5      -0.1634    24.1411    31.2944 C.ar  1 NIL  -0.1435 
 25 C2      -1.6649    24.0875    31.2642 C.3   1 NIL   1.1635 
 26 F4      -2.1692    24.9431    32.2205 F     1 NIL  -0.3400 
 27 F3      -2.1413    24.5106    30.0506 F     1 NIL  -0.3400 
 28 F1      -2.1124    22.8387    31.5832 F     1 NIL  -0.3400 
 29 C18      3.0033    23.2347    36.0756 C.ar  1 NIL   0.0862 
 30 C25      4.3751    23.5776    36.0206 C.ar  1 NIL  -0.1500 
 31 H25      4.8220    23.8114    35.0656 H     1 NIL   0.1500 
 32 C23      5.1776    23.6217    37.1904 C.ar  1 NIL  -0.1500 
 33 H23      6.2266    23.8626    37.1011 H     1 NIL   0.1500 
 34 C22      4.6430    23.3609    38.4553 C.ar  1 NIL  -0.1435 
 35 C27      5.5432    23.4194    39.6885 C.3   1 NIL  -0.0965 
 36 H271     6.5709    23.6099    39.3793 H     1 NIL   0.0800 
 37 H272     5.4938    22.4690    40.2198 H     1 NIL   0.0800 
 38 H273     5.2070    24.2211    40.3460 H     1 NIL   0.0800 
 39 C21      3.2524    23.1269    38.5443 C.ar  1 NIL   0.1000 
 40 C19      2.4842    23.0401    37.3656 C.ar  1 NIL  -0.1500 
 41 H19      1.4332    22.8102    37.4604 H     1 NIL   0.1500 
 42 N31      2.7390    22.6625    39.7605 N.pl3 1 NIL  -0.6000 
 43 H31      2.3427    23.2641    40.4684 H     1 NIL   0.4000 
 44 C33      2.8362    21.2615    39.8879 C.ar  1 NIL   0.7200 
 45 N40      3.4206    20.3409    39.1133 N.ar  1 NIL  -0.6200 
 46 C38      3.3028    19.0236    39.4981 C.ar  1 NIL   0.1600 
 47 H38      3.7772    18.2646    38.8938 H     1 NIL   0.1500 
 48 C36      2.6127    18.6357    40.6100 C.ar  1 NIL  -0.1500 
 49 H36      2.5248    17.5961    40.8891 H     1 NIL   0.1500 
 50 C35      2.0444    19.6191    41.3448 C.ar  1 NIL   0.3100 
 51 N34      2.1579    20.9023    40.9667 N.ar  1 NIL  -0.6200 
 52 C41      1.2594    19.4393    42.5902 C.ar  1 NIL   0.0000 
 53 C49      1.1780    18.1882    43.2536 C.ar  1 NIL  -0.1500 
 54 H49      1.6961    17.3234    42.8661 H     1 NIL   0.1500 
 55 C47      0.4073    18.0985    44.4280 C.ar  1 NIL  -0.1500 
 56 H47      0.3136    17.1593    44.9528 H     1 NIL   0.1500 
 57 C45     -0.2330    19.2425    44.9023 C.ar  1 NIL   0.1600 
 58 H45     -0.8244    19.1643    45.8026 H     1 NIL   0.1500 
 59 N44     -0.1497    20.4404    44.2922 N.ar  1 NIL  -0.6200 
 60 C42      0.5807    20.5365    43.1652 C.ar  1 NIL   0.1600 
 61 H42      0.6509    21.4977    42.6779 H     1 NIL   0.1500 
@<TRIPOS>BOND
  1   1   2  2   
  2   2   3  am  
  3   2  29  1   
  4   3   4  1   
  5   3   5  1   
  6   5   6  ar  
  7   5  22  ar  
  8   6   7  1   
  9   6   8  ar  
 10   8   9  1   
 11   8  20  ar  
 12   9  10  1   
 13   9  18  1   
 14  10  11  1   
 15  10  12  2   
 16  12  13  1   
 17  12  17  1   
 18  13  14  1   
 19  13  15  1   
 20  13  16  1   
 21  17  18  2   
 22  18  19  1   
 23  20  21  1   
 24  20  24  ar  
 25  22  23  1   
 26  22  24  ar  
 27  24  25  1   
 28  25  26  1   
 29  25  27  1   
 30  25  28  1   
 31  29  30  ar  
 32  29  40  ar  
 33  30  31  1   
 34  30  32  ar  
 35  32  33  1   
 36  32  34  ar  
 37  34  35  1   
 38  34  39  ar  
 39  35  36  1   
 40  35  37  1   
 41  35  38  1   
 42  39  40  ar  
 43  39  42  1   
 44  40  41  1   
 45  42  43  1   
 46  42  44  1   
 47  44  45  ar  
 48  44  51  ar  
 49  45  46  ar  
 50  46  47  1   
 51  46  48  ar  
 52  48  49  1   
 53  48  50  ar  
 54  50  51  ar  
 55  50  52  1   
 56  52  53  ar  
 57  52  60  ar  
 58  53  54  1   
 59  53  55  ar  
 60  55  56  1   
 61  55  57  ar  
 62  57  58  1   
 63  57  59  ar  
 64  59  60  ar  
 65  60  61  1   
@<TRIPOS>SUBSTRUCTURE
  1 NIL   2 GROUP 4 D **** 0

# MOE 2012.10 (io_trps.svl 2012.10)
