@<TRIPOS>MOLECULE
3cs9.D
75 50 25 0 0 
SMALL
USER_CHARGES


@<TRIPOS>ATOM
  1 O       -3.6449    -1.2856    16.0684 O.3    1 HOH   0.0000 
  2 H1      -2.6849    -1.2856    16.0684 H      1 HOH   0.0000 
  3 H2      -3.9351    -0.6385    16.7154 H      1 HOH   0.0000 
  4 O       -4.8804     9.9106    33.1568 O.3    2 HOH   0.0000 
  5 H1      -3.9204     9.9106    33.1568 H      2 HOH   0.0000 
  6 H2      -5.1706    10.5577    33.8038 H      2 HOH   0.0000 
  7 O       10.2801    24.4789    29.6331 O.3    3 HOH  -0.8340 
  8 H1       9.8256    23.6768    29.3759 H      3 HOH   0.4170 
  9 H2      10.7122    24.2561    30.4576 H      3 HOH   0.4170 
 10 O       -3.6301    12.7241    27.0273 O.3    4 HOH   0.0000 
 11 H1      -2.6701    12.7241    27.0273 H      4 HOH   0.0000 
 12 H2      -3.9204    13.3711    27.6744 H      4 HOH   0.0000 
 13 O       -3.1086     7.8625    33.2391 O.3    5 HOH   0.0000 
 14 H1      -2.1486     7.8625    33.2391 H      5 HOH   0.0000 
 15 H2      -3.3989     8.5096    33.8862 H      5 HOH   0.0000 
 16 O      -23.7313     8.3419    46.7631 O.3    6 HOH   0.0000 
 17 H1     -22.7713     8.3419    46.7631 H      6 HOH   0.0000 
 18 H2     -24.0216     8.9890    47.4102 H      6 HOH   0.0000 
 19 O       -3.0189     0.8396    18.5242 O.3    7 HOH   0.0000 
 20 H1      -2.0589     0.8396    18.5242 H      7 HOH   0.0000 
 21 H2      -3.3092     1.4867    19.1712 H      7 HOH   0.0000 
 22 O       20.6790    20.7335    36.7682 O.3    8 HOH   0.0000 
 23 H1      21.6390    20.7335    36.7682 H      8 HOH   0.0000 
 24 H2      20.3887    21.3806    37.4152 H      8 HOH   0.0000 
 25 O      -13.0764     3.9818    10.6701 O.3    9 HOH   0.0000 
 26 H1     -12.1164     3.9818    10.6701 H      9 HOH   0.0000 
 27 H2     -13.3667     4.6289    11.3171 H      9 HOH   0.0000 
 28 O       -4.8736    16.5254    24.9681 O.3   10 HOH   0.0000 
 29 H1      -3.9136    16.5254    24.9681 H     10 HOH   0.0000 
 30 H2      -5.1638    17.1725    25.6151 H     10 HOH   0.0000 
 31 O       19.7289    26.6743    26.0093 O.3   11 HOH   0.0000 
 32 H1      20.6889    26.6743    26.0093 H     11 HOH   0.0000 
 33 H2      19.4386    27.3213    26.6564 H     11 HOH   0.0000 
 34 O       -7.2888    23.0881    16.1060 O.3   12 HOH   0.0000 
 35 H1      -6.3288    23.0881    16.1060 H     12 HOH   0.0000 
 36 H2      -7.5790    23.7351    16.7531 H     12 HOH   0.0000 
 37 O       10.2068    23.7008    32.7687 O.3   13 HOH   0.0000 
 38 H1      11.1668    23.7008    32.7687 H     13 HOH   0.0000 
 39 H2       9.9165    24.3479    33.4157 H     13 HOH   0.0000 
 40 O        5.1994    34.9607    53.7142 O.3   14 HOH   0.0000 
 41 H1       6.1594    34.9607    53.7142 H     14 HOH   0.0000 
 42 H2       4.9092    35.6077    54.3612 H     14 HOH   0.0000 
 43 O      -13.4499     4.6152    23.0372 O.3   15 HOH   0.0000 
 44 H1     -12.4899     4.6152    23.0372 H     15 HOH   0.0000 
 45 H2     -13.7402     5.2623    23.6842 H     15 HOH   0.0000 
 46 O        4.9894    20.1362    36.7779 O.3   16 HOH  -0.8340 
 47 H1       4.4155    20.2299    37.5381 H     16 HOH   0.4170 
 48 H2       4.8734    20.9501    36.2877 H     16 HOH   0.4170 
 49 O       16.4158    20.7011    40.8208 O.3   17 HOH   0.0000 
 50 H1      17.3758    20.7011    40.8208 H     17 HOH   0.0000 
 51 H2      16.1255    21.3481    41.4679 H     17 HOH   0.0000 
 52 O       -4.4877    17.2439    21.2836 O.3   18 HOH   0.0000 
 53 H1      -3.5277    17.2439    21.2836 H     18 HOH   0.0000 
 54 H2      -4.7780    17.8910    21.9306 H     18 HOH   0.0000 
 55 O        1.3015    32.4826    53.9487 O.3   19 HOH   0.0000 
 56 H1       2.2615    32.4826    53.9487 H     19 HOH   0.0000 
 57 H2       1.0112    33.1297    54.5958 H     19 HOH   0.0000 
 58 O        7.5235     3.8733    17.8766 O.3   20 HOH   0.0000 
 59 H1       8.4835     3.8733    17.8766 H     20 HOH   0.0000 
 60 H2       7.2332     4.5203    18.5237 H     20 HOH   0.0000 
 61 O      -10.9225    -3.3456    27.6489 O.3   21 HOH   0.0000 
 62 H1      -9.9625    -3.3456    27.6489 H     21 HOH   0.0000 
 63 H2     -11.2128    -2.6986    28.2960 H     21 HOH   0.0000 
 64 O        5.3091     4.6962    14.8257 O.3   22 HOH   0.0000 
 65 H1       6.2691     4.6962    14.8257 H     22 HOH   0.0000 
 66 H2       5.0188     5.3433    15.4727 H     22 HOH   0.0000 
 67 O       17.7158    31.1003    42.8505 O.3   23 HOH   0.0000 
 68 H1      18.6758    31.1003    42.8505 H     23 HOH   0.0000 
 69 H2      17.4255    31.7474    43.4975 H     23 HOH   0.0000 
 70 O        1.2813    18.7629    26.4888 O.3   24 HOH  -0.8340 
 71 H1       1.3037    19.1214    27.3761 H     24 HOH   0.4170 
 72 H2       0.6306    19.2953    26.0312 H     24 HOH   0.4170 
 73 O       -6.5720     6.2093    21.0492 O.3   25 HOH   0.0000 
 74 H1      -5.6120     6.2093    21.0492 H     25 HOH   0.0000 
 75 H2      -6.8623     6.8563    21.6962 H     25 HOH   0.0000 
@<TRIPOS>BOND
  1   1   2  1   
  2   1   3  1   
  3   4   5  1   
  4   4   6  1   
  5   7   8  1   
  6   7   9  1   
  7  10  11  1   
  8  10  12  1   
  9  13  14  1   
 10  13  15  1   
 11  16  17  1   
 12  16  18  1   
 13  19  20  1   
 14  19  21  1   
 15  22  23  1   
 16  22  24  1   
 17  25  26  1   
 18  25  27  1   
 19  28  29  1   
 20  28  30  1   
 21  31  32  1   
 22  31  33  1   
 23  34  35  1   
 24  34  36  1   
 25  37  38  1   
 26  37  39  1   
 27  40  41  1   
 28  40  42  1   
 29  43  44  1   
 30  43  45  1   
 31  46  47  1   
 32  46  48  1   
 33  49  50  1   
 34  49  51  1   
 35  52  53  1   
 36  52  54  1   
 37  55  56  1   
 38  55  57  1   
 39  58  59  1   
 40  58  60  1   
 41  61  62  1   
 42  61  63  1   
 43  64  65  1   
 44  64  66  1   
 45  67  68  1   
 46  67  69  1   
 47  70  71  1   
 48  70  72  1   
 49  73  74  1   
 50  73  75  1   
@<TRIPOS>SUBSTRUCTURE
  1 HOH   1 GROUP 4 D **** 0
  2 HOH   4 GROUP 4 D **** 0
  3 HOH   7 GROUP 4 D **** 0
  4 HOH  10 GROUP 4 D **** 0
  5 HOH  13 GROUP 4 D **** 0
  6 HOH  16 GROUP 4 D **** 0
  7 HOH  19 GROUP 4 D **** 0
  8 HOH  22 GROUP 4 D **** 0
  9 HOH  25 GROUP 4 D **** 0
 10 HOH  28 GROUP 4 D **** 0
 11 HOH  31 GROUP 4 D **** 0
 12 HOH  34 GROUP 4 D **** 0
 13 HOH  37 GROUP 4 D **** 0
 14 HOH  40 GROUP 4 D **** 0
 15 HOH  43 GROUP 4 D **** 0
 16 HOH  46 GROUP 4 D **** 0
 17 HOH  49 GROUP 4 D **** 0
 18 HOH  52 GROUP 4 D **** 0
 19 HOH  55 GROUP 4 D **** 0
 20 HOH  58 GROUP 4 D **** 0
 21 HOH  61 GROUP 4 D **** 0
 22 HOH  64 GROUP 4 D **** 0
 23 HOH  67 GROUP 4 D **** 0
 24 HOH  70 GROUP 4 D **** 0
 25 HOH  73 GROUP 4 D **** 0

# MOE 2012.10 (io_trps.svl 2012.10)
