@<TRIPOS>MOLECULE
3qrk.A
59 62 1 0 0 
SMALL
USER_CHARGES


@<TRIPOS>ATOM
  1 C1       4.0124    23.2289    38.8278 C.ar  1 Q9DP   0.1770 
  2 N1       3.3184    23.2347    35.2155 N.am  1 Q9DP  -0.5470 
  3 H1       4.2539    23.4090    34.8771 H     1 Q9DP   0.3700 
  4 O1       1.1428    23.1405    34.6531 O.2   1 Q9DP  -0.5700 
  5 CL1      5.1539    24.0660    39.9739 Cl    1 Q9DP  -0.1770 
  6 C2       4.0157    23.4719    37.4588 C.ar  1 Q9DP   0.1770 
  7 N2       2.6133    23.8059    33.1082 N.am  1 Q9DP  -0.4940 
  8 H2       3.5782    23.9742    32.8616 H     1 Q9DP   0.3700 
  9 O2       8.1713    19.7776    28.1292 O.co2 1 Q9DP  -0.9000 
 10 CL2      5.1258    24.6528    36.7930 Cl    1 Q9DP  -0.1770 
 11 C3       3.0941    22.2917    39.2902 C.ar  1 Q9DP  -0.1500 
 12 H3       3.0384    22.0587    40.3433 H     1 Q9DP   0.1500 
 13 N3       0.8829    24.3141    30.0548 N.2   1 Q9DP  -0.7068 
 14 O3       8.2275    19.1602    30.2265 O.co2 1 Q9DP  -0.9000 
 15 C4       2.2392    21.6501    38.3772 C.ar  1 Q9DP  -0.1500 
 16 H4       1.5324    20.9232    38.7494 H     1 Q9DP   0.1500 
 17 N4       1.9800    24.0711    30.8937 N.pl3 1 Q9DP   0.5926 
 18 C5       2.2698    21.9178    37.0055 C.ar  1 Q9DP  -0.1500 
 19 H5       1.5975    21.4095    36.3302 H     1 Q9DP   0.1500 
 20 N5       7.4203    22.1341    28.3814 N.4   1 Q9DP  -0.9060 
 21 H52      6.8720    21.5778    27.7411 H     1 Q9DP   0.4500 
 22 H51      8.3809    22.1567    28.0701 H     1 Q9DP   0.4500 
 23 C6       3.1854    22.8540    36.5263 C.ar  1 Q9DP   0.1170 
 24 C7       2.3079    23.3955    34.3430 C.2   1 Q9DP   0.6900 
 25 C8       1.6517    23.9963    32.1936 C.2   1 Q9DP  -0.0876 
 26 C9       0.2762    24.2367    32.2832 C.2   1 Q9DP  -0.1500 
 27 H9      -0.3336    24.2799    33.1735 H     1 Q9DP   0.1500 
 28 C10     -0.1283    24.4086    30.9541 C.2   1 Q9DP   0.1078 
 29 C11     -1.5679    24.6609    30.5556 C.3   1 Q9DP   0.1810 
 30 C12     -2.0135    26.0284    31.0622 C.3   1 Q9DP  -0.2400 
 31 H121    -1.8843    26.0751    32.1435 H     1 Q9DP   0.0800 
 32 H122    -3.0637    26.1831    30.8147 H     1 Q9DP   0.0800 
 33 H123    -1.4110    26.8047    30.5905 H     1 Q9DP   0.0800 
 34 C13     -2.4446    23.5558    31.1340 C.3   1 Q9DP  -0.2400 
 35 H131    -2.3465    23.5449    32.2195 H     1 Q9DP   0.0800 
 36 H132    -2.1292    22.5934    30.7310 H     1 Q9DP   0.0800 
 37 H133    -3.4848    23.7390    30.8650 H     1 Q9DP   0.0800 
 38 C14     -1.7548    24.6156    29.0523 C.3   1 Q9DP  -0.2400 
 39 H141    -1.1458    25.3907    28.5869 H     1 Q9DP   0.0800 
 40 H142    -2.8043    24.7846    28.8114 H     1 Q9DP   0.0800 
 41 H143    -1.4486    23.6390    28.6774 H     1 Q9DP   0.0800 
 42 C15      3.6396    24.8415    29.3981 C.ar  1 Q9DP  -0.1500 
 43 H15      3.0446    25.7204    29.1982 H     1 Q9DP   0.1500 
 44 C16      3.1734    23.9045    30.3185 C.ar  1 Q9DP  -0.0230 
 45 C17      3.9987    22.7905    30.5214 C.ar  1 Q9DP  -0.1500 
 46 H17      3.6742    22.0338    31.2204 H     1 Q9DP   0.1500 
 47 C18      4.8340    24.6805    28.7372 C.ar  1 Q9DP  -0.1500 
 48 H18      5.1552    25.4232    28.0220 H     1 Q9DP   0.1500 
 49 C19      5.6246    23.5785    28.9805 C.ar  1 Q9DP  -0.1435 
 50 C20      5.2094    22.6089    29.8721 C.ar  1 Q9DP  -0.1435 
 51 C21      6.9310    23.4890    28.2415 C.3   1 Q9DP   0.4865 
 52 H211     6.7788    23.7225    27.1878 H     1 Q9DP   0.0800 
 53 H212     7.6486    24.1894    28.6688 H     1 Q9DP   0.0800 
 54 C22      7.4299    21.3982    29.6325 C.3   1 Q9DP   0.3170 
 55 H22      8.0596    21.8695    30.3871 H     1 Q9DP   0.0800 
 56 C23      6.0116    21.3611    30.1985 C.3   1 Q9DP  -0.0165 
 57 H231     5.4941    20.4967    29.7824 H     1 Q9DP   0.0800 
 58 H232     6.0726    21.2610    31.2822 H     1 Q9DP   0.0800 
 59 C24      7.9786    20.0171    29.3368 C.2   1 Q9DP   0.9060 
@<TRIPOS>BOND
  1   1   5  1   
  2   1   6  ar  
  3   1  11  ar  
  4   2   3  1   
  5   2  23  1   
  6   2  24  am  
  7   4  24  2   
  8   6  10  1   
  9   6  23  ar  
 10   7   8  1   
 11   7  24  am  
 12   7  25  1   
 13   9  59  ar  
 14  11  12  1   
 15  11  15  ar  
 16  13  17  1   
 17  13  28  2   
 18  14  59  ar  
 19  15  16  1   
 20  15  18  ar  
 21  17  25  1   
 22  17  44  1   
 23  18  19  1   
 24  18  23  ar  
 25  20  21  1   
 26  20  22  1   
 27  20  51  1   
 28  20  54  1   
 29  25  26  2   
 30  26  27  1   
 31  26  28  1   
 32  28  29  1   
 33  29  30  1   
 34  29  34  1   
 35  29  38  1   
 36  30  31  1   
 37  30  32  1   
 38  30  33  1   
 39  34  35  1   
 40  34  36  1   
 41  34  37  1   
 42  38  39  1   
 43  38  40  1   
 44  38  41  1   
 45  42  43  1   
 46  42  44  ar  
 47  42  47  ar  
 48  44  45  ar  
 49  45  46  1   
 50  45  50  ar  
 51  47  48  1   
 52  47  49  ar  
 53  49  50  ar  
 54  49  51  1   
 55  50  56  1   
 56  51  52  1   
 57  51  53  1   
 58  54  55  1   
 59  54  56  1   
 60  54  59  1   
 61  56  57  1   
 62  56  58  1   
@<TRIPOS>SUBSTRUCTURE
  1 Q9DP   7 GROUP 4 A **** 0

# MOE 2012.10 (io_trps.svl 2012.10)
