@<TRIPOS>MOLECULE
3qrk.A
414 276 138 0 0 
SMALL
USER_CHARGES


@<TRIPOS>ATOM
  1 O       -3.2184     7.6765    33.1536 O.3     1 HOH   0.0000 
  2 H1      -2.2584     7.6765    33.1536 H       1 HOH   0.0000 
  3 H2      -3.5087     8.3236    33.8007 H       1 HOH   0.0000 
  4 O      -18.3450     8.0549    19.3311 O.3     2 HOH   0.0000 
  5 H1     -17.3850     8.0549    19.3311 H       2 HOH   0.0000 
  6 H2     -18.6353     8.7019    19.9781 H       2 HOH   0.0000 
  7 O       -2.3135     5.1875    26.6028 O.3     3 HOH   0.0000 
  8 H1      -1.3535     5.1875    26.6028 H       3 HOH   0.0000 
  9 H2      -2.6038     5.8345    27.2498 H       3 HOH   0.0000 
 10 O       -4.6927    17.2151    21.3282 O.3     4 HOH   0.0000 
 11 H1      -3.7327    17.2151    21.3282 H       4 HOH   0.0000 
 12 H2      -4.9830    17.8621    21.9753 H       4 HOH   0.0000 
 13 O       -3.5635    12.3534    27.0148 O.3     5 HOH   0.0000 
 14 H1      -2.6035    12.3534    27.0148 H       5 HOH   0.0000 
 15 H2      -3.8538    13.0005    27.6619 H       5 HOH   0.0000 
 16 O       -7.0586     6.5010    21.0246 O.3     6 HOH   0.0000 
 17 H1      -6.0986     6.5010    21.0246 H       6 HOH   0.0000 
 18 H2      -7.3488     7.1480    21.6717 H       6 HOH   0.0000 
 19 O      -13.8581     5.0682    23.2743 O.3     7 HOH   0.0000 
 20 H1     -12.8981     5.0682    23.2743 H       7 HOH   0.0000 
 21 H2     -14.1484     5.7152    23.9214 H       7 HOH   0.0000 
 22 O        2.1363    16.0026    30.4337 O.3     8 HOH   0.0000 
 23 H1       3.0963    16.0026    30.4337 H       8 HOH   0.0000 
 24 H2       1.8460    16.6496    31.0808 H       8 HOH   0.0000 
 25 O       -5.9033    10.8727    46.8711 O.3     9 HOH   0.0000 
 26 H1      -4.9433    10.8727    46.8711 H       9 HOH   0.0000 
 27 H2      -6.1936    11.5197    47.5181 H       9 HOH   0.0000 
 28 O       -8.8459    10.4338    47.3931 O.3    10 HOH   0.0000 
 29 H1      -7.8859    10.4338    47.3931 H      10 HOH   0.0000 
 30 H2      -9.1362    11.0808    48.0401 H      10 HOH   0.0000 
 31 O      -16.5122    23.1623    47.2957 O.3    11 HOH   0.0000 
 32 H1     -15.5522    23.1623    47.2957 H      11 HOH   0.0000 
 33 H2     -16.8025    23.8094    47.9428 H      11 HOH   0.0000 
 34 O       -4.4948     5.2668    33.4594 O.3    12 HOH   0.0000 
 35 H1      -3.5348     5.2668    33.4594 H      12 HOH   0.0000 
 36 H2      -4.7851     5.9139    34.1065 H      12 HOH   0.0000 
 37 O       -5.1001    16.3318    24.7422 O.3    13 HOH   0.0000 
 38 H1      -4.1401    16.3318    24.7422 H      13 HOH   0.0000 
 39 H2      -5.3904    16.9788    25.3892 H      13 HOH   0.0000 
 40 O       -3.7629    13.0959    24.4415 O.3    14 HOH   0.0000 
 41 H1      -2.8029    13.0959    24.4415 H      14 HOH   0.0000 
 42 H2      -4.0532    13.7430    25.0885 H      14 HOH   0.0000 
 43 O       -7.0788    23.5332    16.2204 O.3    15 HOH   0.0000 
 44 H1      -6.1188    23.5332    16.2204 H      15 HOH   0.0000 
 45 H2      -7.3690    24.1802    16.8675 H      15 HOH   0.0000 
 46 O      -14.9001     5.4615    13.7351 O.3    16 HOH   0.0000 
 47 H1     -13.9401     5.4615    13.7351 H      16 HOH   0.0000 
 48 H2     -15.1903     6.1085    14.3822 H      16 HOH   0.0000 
 49 O       -6.5310    13.3252    21.6313 O.3    17 HOH   0.0000 
 50 H1      -5.5710    13.3252    21.6313 H      17 HOH   0.0000 
 51 H2      -6.8213    13.9722    22.2783 H      17 HOH   0.0000 
 52 O      -17.4576     8.4785    14.4209 O.3    18 HOH   0.0000 
 53 H1     -16.4976     8.4785    14.4209 H      18 HOH   0.0000 
 54 H2     -17.7479     9.1255    15.0679 H      18 HOH   0.0000 
 55 O       10.7842    17.7475    36.5460 O.3    19 HOH   0.0000 
 56 H1      11.7442    17.7475    36.5460 H      19 HOH   0.0000 
 57 H2      10.4939    18.3946    37.1930 H      19 HOH   0.0000 
 58 O       -0.5998    18.9321    43.9781 O.3    20 HOH   0.0000 
 59 H1       0.3602    18.9321    43.9781 H      20 HOH   0.0000 
 60 H2      -0.8901    19.5791    44.6251 H      20 HOH   0.0000 
 61 O      -13.4201    -1.0540    26.4183 O.3    21 HOH   0.0000 
 62 H1     -12.4601    -1.0540    26.4183 H      21 HOH   0.0000 
 63 H2     -13.7104    -0.4070    27.0654 H      21 HOH   0.0000 
 64 O       -4.3175    14.8875    22.5447 O.3    22 HOH   0.0000 
 65 H1      -3.3575    14.8875    22.5447 H      22 HOH   0.0000 
 66 H2      -4.6078    15.5346    23.1918 H      22 HOH   0.0000 
 67 O       -4.2648    12.6146    44.3583 O.3    23 HOH   0.0000 
 68 H1      -3.3048    12.6146    44.3583 H      23 HOH   0.0000 
 69 H2      -4.5551    13.2617    45.0054 H      23 HOH   0.0000 
 70 O       -8.1920     5.2929    49.5262 O.3    24 HOH   0.0000 
 71 H1      -7.2320     5.2929    49.5262 H      24 HOH   0.0000 
 72 H2      -8.4823     5.9400    50.1732 H      24 HOH   0.0000 
 73 O      -15.3193    17.7572     7.4127 O.3    25 HOH   0.0000 
 74 H1     -14.3593    17.7572     7.4127 H      25 HOH   0.0000 
 75 H2     -15.6096    18.4043     8.0598 H      25 HOH   0.0000 
 76 O       -8.8607     6.7746    22.7267 O.3    26 HOH   0.0000 
 77 H1      -7.9007     6.7746    22.7267 H      26 HOH   0.0000 
 78 H2      -9.1510     7.4216    23.3737 H      26 HOH   0.0000 
 79 O        6.6188    18.0000    35.9885 O.3    27 HOH   0.0000 
 80 H1       7.5788    18.0000    35.9885 H      27 HOH   0.0000 
 81 H2       6.3285    18.6470    36.6356 H      27 HOH   0.0000 
 82 O        4.4040     5.5981    30.2404 O.3    28 HOH   0.0000 
 83 H1       5.3640     5.5981    30.2404 H      28 HOH   0.0000 
 84 H2       4.1137     6.2452    30.8875 H      28 HOH   0.0000 
 85 O       -9.5228    28.9055    41.3618 O.3    29 HOH   0.0000 
 86 H1      -8.5628    28.9055    41.3618 H      29 HOH   0.0000 
 87 H2      -9.8131    29.5526    42.0088 H      29 HOH   0.0000 
 88 O       -5.4682    23.5798    47.6234 O.3    30 HOH   0.0000 
 89 H1      -4.5082    23.5798    47.6234 H      30 HOH   0.0000 
 90 H2      -5.7585    24.2269    48.2704 H      30 HOH   0.0000 
 91 O      -11.3841    18.5348    47.7814 O.3    31 HOH   0.0000 
 92 H1     -10.4241    18.5348    47.7814 H      31 HOH   0.0000 
 93 H2     -11.6744    19.1819    48.4284 H      31 HOH   0.0000 
 94 O      -18.4472    26.4881    18.9841 O.3    32 HOH   0.0000 
 95 H1     -17.4872    26.4881    18.9841 H      32 HOH   0.0000 
 96 H2     -18.7375    27.1352    19.6311 H      32 HOH   0.0000 
 97 O      -27.4419    26.1787    33.5947 O.3    33 HOH   0.0000 
 98 H1     -26.4819    26.1787    33.5947 H      33 HOH   0.0000 
 99 H2     -27.7322    26.8257    34.2417 H      33 HOH   0.0000 
100 O        0.0655    21.2031    43.0661 O.3    34 HOH  -0.8340 
101 H1      -0.6463    21.6455    43.5286 H      34 HOH   0.4170 
102 H2       0.1179    21.6509    42.2217 H      34 HOH   0.4170 
103 O       -1.5941    17.7640    50.6906 O.3    35 HOH   0.0000 
104 H1      -0.6341    17.7640    50.6906 H      35 HOH   0.0000 
105 H2      -1.8844    18.4110    51.3376 H      35 HOH   0.0000 
106 O      -15.3990    -0.2071    27.6593 O.3    36 HOH   0.0000 
107 H1     -14.4390    -0.2071    27.6593 H      36 HOH   0.0000 
108 H2     -15.6893     0.4399    28.3064 H      36 HOH   0.0000 
109 O       -7.4905    24.7585    46.7038 O.3    37 HOH   0.0000 
110 H1      -6.5305    24.7585    46.7038 H      37 HOH   0.0000 
111 H2      -7.7808    25.4056    47.3508 H      37 HOH   0.0000 
112 O      -22.7797     1.4203    26.0388 O.3    38 HOH   0.0000 
113 H1     -21.8197     1.4203    26.0388 H      38 HOH   0.0000 
114 H2     -23.0700     2.0673    26.6858 H      38 HOH   0.0000 
115 O       -9.7120    10.9343    12.1897 O.3    39 HOH   0.0000 
116 H1      -8.7520    10.9343    12.1897 H      39 HOH   0.0000 
117 H2     -10.0022    11.5814    12.8368 H      39 HOH   0.0000 
118 O      -11.0783     3.2176    40.7473 O.3    40 HOH   0.0000 
119 H1     -10.1183     3.2176    40.7473 H      40 HOH   0.0000 
120 H2     -11.3686     3.8647    41.3944 H      40 HOH   0.0000 
121 O       -2.0960    25.5066    41.0994 O.3    41 HOH   0.0000 
122 H1      -1.1360    25.5066    41.0994 H      41 HOH   0.0000 
123 H2      -2.3863    26.1536    41.7465 H      41 HOH   0.0000 
124 O      -17.5488    11.6540    12.3599 O.3    42 HOH   0.0000 
125 H1     -16.5888    11.6540    12.3599 H      42 HOH   0.0000 
126 H2     -17.8390    12.3011    13.0069 H      42 HOH   0.0000 
127 O       -7.0847    16.8579    14.8439 O.3    43 HOH   0.0000 
128 H1      -6.1247    16.8579    14.8439 H      43 HOH   0.0000 
129 H2      -7.3750    17.5049    15.4909 H      43 HOH   0.0000 
130 O       -7.8635    23.1413    23.5821 O.3    44 HOH   0.0000 
131 H1      -6.9035    23.1413    23.5821 H      44 HOH   0.0000 
132 H2      -8.1538    23.7883    24.2292 H      44 HOH   0.0000 
133 O        5.4838    20.9345    34.0122 O.3    45 HOH  -0.8340 
134 H1       5.5192    21.7651    33.5379 H      45 HOH   0.4170 
135 H2       4.6205    20.5765    33.8051 H      45 HOH   0.4170 
136 O      -11.2099    23.9609    16.6557 O.3    46 HOH   0.0000 
137 H1     -10.2499    23.9609    16.6557 H      46 HOH   0.0000 
138 H2     -11.5002    24.6080    17.3027 H      46 HOH   0.0000 
139 O      -13.8711    28.4718    23.6995 O.3    47 HOH   0.0000 
140 H1     -12.9111    28.4718    23.6995 H      47 HOH   0.0000 
141 H2     -14.1614    29.1188    24.3466 H      47 HOH   0.0000 
142 O       -1.3334     9.6040    37.9457 O.3    48 HOH   0.0000 
143 H1      -0.3734     9.6040    37.9457 H      48 HOH   0.0000 
144 H2      -1.6237    10.2510    38.5928 H      48 HOH   0.0000 
145 O        0.4022    14.5057    42.7509 O.3    49 HOH   0.0000 
146 H1       1.3622    14.5057    42.7509 H      49 HOH   0.0000 
147 H2       0.1119    15.1527    43.3979 H      49 HOH   0.0000 
148 O      -18.8297     0.2871    19.9232 O.3    50 HOH   0.0000 
149 H1     -17.8697     0.2871    19.9232 H      50 HOH   0.0000 
150 H2     -19.1199     0.9342    20.5702 H      50 HOH   0.0000 
151 O       -3.1837    32.0003    17.8095 O.3    51 HOH   0.0000 
152 H1      -2.2237    32.0003    17.8095 H      51 HOH   0.0000 
153 H2      -3.4740    32.6473    18.4566 H      51 HOH   0.0000 
154 O       -6.5398    29.9702    38.5989 O.3    52 HOH   0.0000 
155 H1      -5.5798    29.9702    38.5989 H      52 HOH   0.0000 
156 H2      -6.8300    30.6172    39.2460 H      52 HOH   0.0000 
157 O      -19.9827    12.7682    35.0146 O.3    53 HOH   0.0000 
158 H1     -19.0227    12.7682    35.0146 H      53 HOH   0.0000 
159 H2     -20.2729    13.4153    35.6617 H      53 HOH   0.0000 
160 O       10.7523     6.7267    25.0657 O.3    54 HOH   0.0000 
161 H1      11.7123     6.7267    25.0657 H      54 HOH   0.0000 
162 H2      10.4620     7.3738    25.7127 H      54 HOH   0.0000 
163 O       -4.1747     5.1561    43.2552 O.3    55 HOH   0.0000 
164 H1      -3.2147     5.1561    43.2552 H      55 HOH   0.0000 
165 H2      -4.4649     5.8032    43.9022 H      55 HOH   0.0000 
166 O      -12.6279    21.4865    13.4967 O.3    56 HOH   0.0000 
167 H1     -11.6679    21.4865    13.4967 H      56 HOH   0.0000 
168 H2     -12.9182    22.1336    14.1438 H      56 HOH   0.0000 
169 O       -9.4260    22.2650    15.8784 O.3    57 HOH   0.0000 
170 H1      -8.4660    22.2650    15.8784 H      57 HOH   0.0000 
171 H2      -9.7163    22.9121    16.5254 H      57 HOH   0.0000 
172 O      -12.6106     5.2525    44.8110 O.3    58 HOH   0.0000 
173 H1     -11.6506     5.2525    44.8110 H      58 HOH   0.0000 
174 H2     -12.9009     5.8996    45.4580 H      58 HOH   0.0000 
175 O       13.0032    14.8300    48.1501 O.3    59 HOH   0.0000 
176 H1      13.9632    14.8300    48.1501 H      59 HOH   0.0000 
177 H2      12.7129    15.4770    48.7971 H      59 HOH   0.0000 
178 O       -3.2426     3.8258    35.2138 O.3    60 HOH   0.0000 
179 H1      -2.2826     3.8258    35.2138 H      60 HOH   0.0000 
180 H2      -3.5329     4.4729    35.8609 H      60 HOH   0.0000 
181 O       -7.7494     9.2566    10.8188 O.3    61 HOH   0.0000 
182 H1      -6.7894     9.2566    10.8188 H      61 HOH   0.0000 
183 H2      -8.0397     9.9036    11.4659 H      61 HOH   0.0000 
184 O      -11.5333    25.5351    46.6815 O.3    62 HOH   0.0000 
185 H1     -10.5733    25.5351    46.6815 H      62 HOH   0.0000 
186 H2     -11.8235    26.1821    47.3285 H      62 HOH   0.0000 
187 O       -4.5959    30.2254    36.0582 O.3    63 HOH   0.0000 
188 H1      -3.6359    30.2254    36.0582 H      63 HOH   0.0000 
189 H2      -4.8862    30.8724    36.7052 H      63 HOH   0.0000 
190 O      -15.6038    22.5578    27.3003 O.3    64 HOH   0.0000 
191 H1     -14.6438    22.5578    27.3003 H      64 HOH   0.0000 
192 H2     -15.8940    23.2049    27.9473 H      64 HOH   0.0000 
193 O      -13.1320    11.0467    49.5851 O.3    65 HOH   0.0000 
194 H1     -12.1720    11.0467    49.5851 H      65 HOH   0.0000 
195 H2     -13.4223    11.6937    50.2321 H      65 HOH   0.0000 
196 O       -8.6532    -0.1109    35.5790 O.3    66 HOH   0.0000 
197 H1      -7.6932    -0.1109    35.5790 H      66 HOH   0.0000 
198 H2      -8.9434     0.5362    36.2260 H      66 HOH   0.0000 
199 O       13.7427    15.1288    31.2965 O.3    67 HOH   0.0000 
200 H1      14.7027    15.1288    31.2965 H      67 HOH   0.0000 
201 H2      13.4525    15.7758    31.9436 H      67 HOH   0.0000 
202 O        7.1701    15.2983    53.3608 O.3    68 HOH   0.0000 
203 H1       8.1301    15.2983    53.3608 H      68 HOH   0.0000 
204 H2       6.8798    15.9453    54.0079 H      68 HOH   0.0000 
205 O      -25.0330     7.1868    39.8180 O.3    69 HOH   0.0000 
206 H1     -24.0730     7.1868    39.8180 H      69 HOH   0.0000 
207 H2     -25.3233     7.8338    40.4651 H      69 HOH   0.0000 
208 O      -10.2738    20.6904    13.7360 O.3    70 HOH   0.0000 
209 H1      -9.3138    20.6904    13.7360 H      70 HOH   0.0000 
210 H2     -10.5641    21.3374    14.3831 H      70 HOH   0.0000 
211 O      -18.6071     4.0033    37.7757 O.3    71 HOH   0.0000 
212 H1     -17.6471     4.0033    37.7757 H      71 HOH   0.0000 
213 H2     -18.8974     4.6504    38.4227 H      71 HOH   0.0000 
214 O      -17.0350    21.7253    13.2455 O.3    72 HOH   0.0000 
215 H1     -16.0750    21.7253    13.2455 H      72 HOH   0.0000 
216 H2     -17.3253    22.3724    13.8926 H      72 HOH   0.0000 
217 O      -12.8448    23.4895    18.3481 O.3    73 HOH   0.0000 
218 H1     -11.8848    23.4895    18.3481 H      73 HOH   0.0000 
219 H2     -13.1351    24.1366    18.9951 H      73 HOH   0.0000 
220 O       -9.3533    31.7966    18.7881 O.3    74 HOH   0.0000 
221 H1      -8.3933    31.7966    18.7881 H      74 HOH   0.0000 
222 H2      -9.6435    32.4437    19.4351 H      74 HOH   0.0000 
223 O        9.3427     9.4617    16.3173 O.3    75 HOH   0.0000 
224 H1      10.3027     9.4617    16.3173 H      75 HOH   0.0000 
225 H2       9.0524    10.1087    16.9643 H      75 HOH   0.0000 
226 O       -7.4237    35.7673    30.5854 O.3    76 HOH   0.0000 
227 H1      -6.4637    35.7673    30.5854 H      76 HOH   0.0000 
228 H2      -7.7140    36.4143    31.2324 H      76 HOH   0.0000 
229 O      -27.2121    19.1938    27.4729 O.3    77 HOH   0.0000 
230 H1     -26.2521    19.1938    27.4729 H      77 HOH   0.0000 
231 H2     -27.5024    19.8408    28.1199 H      77 HOH   0.0000 
232 O       13.0894    12.6469    31.9546 O.3    78 HOH   0.0000 
233 H1      14.0494    12.6469    31.9546 H      78 HOH   0.0000 
234 H2      12.7991    13.2939    32.6017 H      78 HOH   0.0000 
235 O       12.7750    19.5518    54.0155 O.3    79 HOH   0.0000 
236 H1      13.7350    19.5518    54.0155 H      79 HOH   0.0000 
237 H2      12.4847    20.1989    54.6625 H      79 HOH   0.0000 
238 O        9.5558    23.5470    31.7655 O.3    80 HOH  -0.8340 
239 H1       8.6711    23.4769    32.1244 H      80 HOH   0.4170 
240 H2       9.5404    24.3496    31.2441 H      80 HOH   0.4170 
241 O        0.0515    19.5051    15.1664 O.3    81 HOH   0.0000 
242 H1       1.0115    19.5051    15.1664 H      81 HOH   0.0000 
243 H2      -0.2388    20.1522    15.8134 H      81 HOH   0.0000 
244 O      -16.8775    22.6338    15.4864 O.3    82 HOH   0.0000 
245 H1     -15.9175    22.6338    15.4864 H      82 HOH   0.0000 
246 H2     -17.1677    23.2809    16.1335 H      82 HOH   0.0000 
247 O      -19.9302    27.8272    26.5223 O.3    83 HOH   0.0000 
248 H1     -18.9702    27.8272    26.5223 H      83 HOH   0.0000 
249 H2     -20.2205    28.4743    27.1694 H      83 HOH   0.0000 
250 O       -5.6888    12.9927    47.6287 O.3    84 HOH   0.0000 
251 H1      -4.7288    12.9927    47.6287 H      84 HOH   0.0000 
252 H2      -5.9790    13.6397    48.2758 H      84 HOH   0.0000 
253 O      -31.9637    18.9629    33.0678 O.3    85 HOH   0.0000 
254 H1     -31.0037    18.9629    33.0678 H      85 HOH   0.0000 
255 H2     -32.2540    19.6100    33.7149 H      85 HOH   0.0000 
256 O       -1.0990    33.8341    35.1315 O.3    86 HOH   0.0000 
257 H1      -0.1390    33.8341    35.1315 H      86 HOH   0.0000 
258 H2      -1.3893    34.4812    35.7785 H      86 HOH   0.0000 
259 O      -21.8792    11.6737    37.1036 O.3    87 HOH   0.0000 
260 H1     -20.9192    11.6737    37.1036 H      87 HOH   0.0000 
261 H2     -22.1694    12.3208    37.7506 H      87 HOH   0.0000 
262 O      -14.2504    26.3961    40.2499 O.3    88 HOH   0.0000 
263 H1     -13.2904    26.3961    40.2499 H      88 HOH   0.0000 
264 H2     -14.5407    27.0431    40.8969 H      88 HOH   0.0000 
265 O      -15.6905    26.4026    17.3504 O.3    89 HOH   0.0000 
266 H1     -14.7305    26.4026    17.3504 H      89 HOH   0.0000 
267 H2     -15.9808    27.0496    17.9974 H      89 HOH   0.0000 
268 O       -4.4672    33.7226    22.7021 O.3    90 HOH   0.0000 
269 H1      -3.5072    33.7226    22.7021 H      90 HOH   0.0000 
270 H2      -4.7574    34.3697    23.3491 H      90 HOH   0.0000 
271 O      -29.4455     9.8730    33.6688 O.3    91 HOH   0.0000 
272 H1     -28.4855     9.8730    33.6688 H      91 HOH   0.0000 
273 H2     -29.7358    10.5200    34.3158 H      91 HOH   0.0000 
274 O       -8.9793    31.5652    41.5720 O.3    92 HOH   0.0000 
275 H1      -8.0193    31.5652    41.5720 H      92 HOH   0.0000 
276 H2      -9.2696    32.2122    42.2191 H      92 HOH   0.0000 
277 O       12.8891    19.9719    36.5485 O.3    93 HOH   0.0000 
278 H1      13.8491    19.9719    36.5485 H      93 HOH   0.0000 
279 H2      12.5988    20.6189    37.1955 H      93 HOH   0.0000 
280 O        4.7882     0.2198    18.3993 O.3    94 HOH   0.0000 
281 H1       5.7482     0.2198    18.3993 H      94 HOH   0.0000 
282 H2       4.4979     0.8668    19.0463 H      94 HOH   0.0000 
283 O      -19.3601    19.5136    15.2965 O.3    95 HOH   0.0000 
284 H1     -18.4001    19.5136    15.2965 H      95 HOH   0.0000 
285 H2     -19.6504    20.1607    15.9435 H      95 HOH   0.0000 
286 O       -3.5196     3.6535    31.7105 O.3    96 HOH   0.0000 
287 H1      -2.5596     3.6535    31.7105 H      96 HOH   0.0000 
288 H2      -3.8099     4.3005    32.3576 H      96 HOH   0.0000 
289 O        5.7073     6.7666    37.0561 O.3    97 HOH   0.0000 
290 H1       6.6673     6.7666    37.0561 H      97 HOH   0.0000 
291 H2       5.4170     7.4137    37.7031 H      97 HOH   0.0000 
292 O      -21.0957    16.6268    17.9494 O.3    98 HOH   0.0000 
293 H1     -20.1357    16.6268    17.9494 H      98 HOH   0.0000 
294 H2     -21.3860    17.2738    18.5965 H      98 HOH   0.0000 
295 O       -2.9939     0.7513    18.7409 O.3    99 HOH   0.0000 
296 H1      -2.0339     0.7513    18.7409 H      99 HOH   0.0000 
297 H2      -3.2842     1.3983    19.3879 H      99 HOH   0.0000 
298 O       -3.5607    30.4061    43.0099 O.3   100 HOH   0.0000 
299 H1      -2.6007    30.4061    43.0099 H     100 HOH   0.0000 
300 H2      -3.8510    31.0531    43.6569 H     100 HOH   0.0000 
301 O        2.3088     3.8271    32.7330 O.3   101 HOH   0.0000 
302 H1       3.2688     3.8271    32.7330 H     101 HOH   0.0000 
303 H2       2.0185     4.4741    33.3801 H     101 HOH   0.0000 
304 O        0.0989    23.2495    40.6369 O.3   102 HOH  -0.8340 
305 H1      -0.0062    23.2396    39.6856 H     102 HOH   0.4170 
306 H2       0.7377    23.9433    40.8006 H     102 HOH   0.4170 
307 O       -9.2375    -0.8968    32.9945 O.3   103 HOH   0.0000 
308 H1      -8.2775    -0.8968    32.9945 H     103 HOH   0.0000 
309 H2      -9.5278    -0.2498    33.6415 H     103 HOH   0.0000 
310 O       -0.1790     4.1363    25.5324 O.3   104 HOH   0.0000 
311 H1       0.7810     4.1363    25.5324 H     104 HOH   0.0000 
312 H2      -0.4693     4.7834    26.1795 H     104 HOH   0.0000 
313 O      -28.5527    14.2068    32.9272 O.3   105 HOH   0.0000 
314 H1     -27.5927    14.2068    32.9272 H     105 HOH   0.0000 
315 H2     -28.8430    14.8539    33.5743 H     105 HOH   0.0000 
316 O       -3.5348    19.4994    12.9403 O.3   106 HOH   0.0000 
317 H1      -2.5748    19.4994    12.9403 H     106 HOH   0.0000 
318 H2      -3.8251    20.1464    13.5874 H     106 HOH   0.0000 
319 O        1.5539    36.0902    43.2328 O.3   107 HOH   0.0000 
320 H1       2.5139    36.0902    43.2328 H     107 HOH   0.0000 
321 H2       1.2636    36.7373    43.8798 H     107 HOH   0.0000 
322 O        1.8363    27.8288    55.8253 O.3   108 HOH   0.0000 
323 H1       2.7963    27.8288    55.8253 H     108 HOH   0.0000 
324 H2       1.5460    28.4758    56.4724 H     108 HOH   0.0000 
325 O      -22.9024    27.4056    23.2787 O.3   109 HOH   0.0000 
326 H1     -21.9424    27.4056    23.2787 H     109 HOH   0.0000 
327 H2     -23.1927    28.0526    23.9257 H     109 HOH   0.0000 
328 O        8.3429    34.2325    53.1419 O.3   110 HOH   0.0000 
329 H1       9.3029    34.2325    53.1419 H     110 HOH   0.0000 
330 H2       8.0526    34.8795    53.7889 H     110 HOH   0.0000 
331 O       -0.5112     0.8235    18.3250 O.3   111 HOH   0.0000 
332 H1       0.4488     0.8235    18.3250 H     111 HOH   0.0000 
333 H2      -0.8015     1.4705    18.9720 H     111 HOH   0.0000 
334 O       -6.7892    -0.9498    30.3652 O.3   112 HOH   0.0000 
335 H1      -5.8292    -0.9498    30.3652 H     112 HOH   0.0000 
336 H2      -7.0795    -0.3028    31.0122 H     112 HOH   0.0000 
337 O      -29.4661    22.3280    32.5989 O.3   113 HOH   0.0000 
338 H1     -28.5061    22.3280    32.5989 H     113 HOH   0.0000 
339 H2     -29.7563    22.9750    33.2459 H     113 HOH   0.0000 
340 O      -21.3535    27.5157    21.1538 O.3   114 HOH   0.0000 
341 H1     -20.3935    27.5157    21.1538 H     114 HOH   0.0000 
342 H2     -21.6438    28.1627    21.8008 H     114 HOH   0.0000 
343 O      -26.2899     8.9556    23.9644 O.3   115 HOH   0.0000 
344 H1     -25.3299     8.9556    23.9644 H     115 HOH   0.0000 
345 H2     -26.5802     9.6027    24.6115 H     115 HOH   0.0000 
346 O      -22.2253     8.0058    46.0408 O.3   116 HOH   0.0000 
347 H1     -21.2653     8.0058    46.0408 H     116 HOH   0.0000 
348 H2     -22.5156     8.6528    46.6878 H     116 HOH   0.0000 
349 O        9.4510    51.6282    36.0294 O.3   117 HOH   0.0000 
350 H1      10.4110    51.6282    36.0294 H     117 HOH   0.0000 
351 H2       9.1607    52.2752    36.6764 H     117 HOH   0.0000 
352 O        7.2222    17.1795    51.1114 O.3   118 HOH   0.0000 
353 H1       8.1822    17.1795    51.1114 H     118 HOH   0.0000 
354 H2       6.9320    17.8265    51.7584 H     118 HOH   0.0000 
355 O       -8.7145     1.9563    39.1599 O.3   119 HOH   0.0000 
356 H1      -7.7545     1.9563    39.1599 H     119 HOH   0.0000 
357 H2      -9.0047     2.6033    39.8069 H     119 HOH   0.0000 
358 O      -13.6262    31.2855    28.8238 O.3   120 HOH   0.0000 
359 H1     -12.6662    31.2855    28.8238 H     120 HOH   0.0000 
360 H2     -13.9165    31.9325    29.4709 H     120 HOH   0.0000 
361 O        2.7715     1.0168    15.6642 O.3   121 HOH   0.0000 
362 H1       3.7315     1.0168    15.6642 H     121 HOH   0.0000 
363 H2       2.4813     1.6638    16.3112 H     121 HOH   0.0000 
364 O       -5.1127    35.8699    30.1000 O.3   122 HOH   0.0000 
365 H1      -4.1527    35.8699    30.1000 H     122 HOH   0.0000 
366 H2      -5.4030    36.5170    30.7470 H     122 HOH   0.0000 
367 O       -6.9195    28.4235    43.9605 O.3   123 HOH   0.0000 
368 H1      -5.9595    28.4235    43.9605 H     123 HOH   0.0000 
369 H2      -7.2098    29.0706    44.6076 H     123 HOH   0.0000 
370 O      -28.3803    12.4001    31.4315 O.3   124 HOH   0.0000 
371 H1     -27.4203    12.4001    31.4315 H     124 HOH   0.0000 
372 H2     -28.6706    13.0472    32.0785 H     124 HOH   0.0000 
373 O       10.0453    50.4047    44.0736 O.3   125 HOH   0.0000 
374 H1      11.0053    50.4047    44.0736 H     125 HOH   0.0000 
375 H2       9.7550    51.0518    44.7206 H     125 HOH   0.0000 
376 O      -14.3819     5.0682     9.8607 O.3   126 HOH   0.0000 
377 H1     -13.4219     5.0682     9.8607 H     126 HOH   0.0000 
378 H2     -14.6722     5.7153    10.5077 H     126 HOH   0.0000 
379 O      -27.6442     7.2458    37.7768 O.3   127 HOH   0.0000 
380 H1     -26.6842     7.2458    37.7768 H     127 HOH   0.0000 
381 H2     -27.9345     7.8929    38.4238 H     127 HOH   0.0000 
382 O      -29.6306    19.2566    26.5034 O.3   128 HOH   0.0000 
383 H1     -28.6706    19.2566    26.5034 H     128 HOH   0.0000 
384 H2     -29.9209    19.9036    27.1504 H     128 HOH   0.0000 
385 O       -2.9606    27.5196    40.2195 O.3   129 HOH   0.0000 
386 H1      -2.0006    27.5196    40.2195 H     129 HOH   0.0000 
387 H2      -3.2509    28.1667    40.8665 H     129 HOH   0.0000 
388 O      -10.1351    -0.8693    10.4856 O.3   130 HOH   0.0000 
389 H1      -9.1751    -0.8693    10.4856 H     130 HOH   0.0000 
390 H2     -10.4254    -0.2222    11.1327 H     130 HOH   0.0000 
391 O        2.2833    18.5601    15.8564 O.3   131 HOH   0.0000 
392 H1       3.2433    18.5601    15.8564 H     131 HOH   0.0000 
393 H2       1.9930    19.2072    16.5035 H     131 HOH   0.0000 
394 O       15.5963    36.2304    48.4178 O.3   132 HOH   0.0000 
395 H1      16.5563    36.2304    48.4178 H     132 HOH   0.0000 
396 H2      15.3060    36.8774    49.0648 H     132 HOH   0.0000 
397 O      -19.1651    -1.7318    15.3299 O.3   133 HOH   0.0000 
398 H1     -18.2051    -1.7318    15.3299 H     133 HOH   0.0000 
399 H2     -19.4554    -1.0847    15.9770 H     133 HOH   0.0000 
400 O       -2.7964     1.0354    32.8284 O.3   134 HOH   0.0000 
401 H1      -1.8364     1.0354    32.8284 H     134 HOH   0.0000 
402 H2      -3.0867     1.6824    33.4754 H     134 HOH   0.0000 
403 O       -4.9977     9.6396    33.5661 O.3   135 HOH   0.0000 
404 H1      -4.0377     9.6396    33.5661 H     135 HOH   0.0000 
405 H2      -5.2880    10.2866    34.2132 H     135 HOH   0.0000 
406 O       11.0865    18.3113    55.5205 O.3   136 HOH   0.0000 
407 H1      12.0465    18.3113    55.5205 H     136 HOH   0.0000 
408 H2      10.7962    18.9584    56.1676 H     136 HOH   0.0000 
409 O       13.5465    28.1712    49.1153 O.3   137 HOH   0.0000 
410 H1      14.5065    28.1712    49.1153 H     137 HOH   0.0000 
411 H2      13.2562    28.8182    49.7623 H     137 HOH   0.0000 
412 O       -7.2171     6.2346    33.6909 O.3   138 HOH   0.0000 
413 H1      -6.2571     6.2346    33.6909 H     138 HOH   0.0000 
414 H2      -7.5074     6.8817    34.3379 H     138 HOH   0.0000 
@<TRIPOS>BOND
  1   1   2  1   
  2   1   3  1   
  3   4   5  1   
  4   4   6  1   
  5   7   8  1   
  6   7   9  1   
  7  10  11  1   
  8  10  12  1   
  9  13  14  1   
 10  13  15  1   
 11  16  17  1   
 12  16  18  1   
 13  19  20  1   
 14  19  21  1   
 15  22  23  1   
 16  22  24  1   
 17  25  26  1   
 18  25  27  1   
 19  28  29  1   
 20  28  30  1   
 21  31  32  1   
 22  31  33  1   
 23  34  35  1   
 24  34  36  1   
 25  37  38  1   
 26  37  39  1   
 27  40  41  1   
 28  40  42  1   
 29  43  44  1   
 30  43  45  1   
 31  46  47  1   
 32  46  48  1   
 33  49  50  1   
 34  49  51  1   
 35  52  53  1   
 36  52  54  1   
 37  55  56  1   
 38  55  57  1   
 39  58  59  1   
 40  58  60  1   
 41  61  62  1   
 42  61  63  1   
 43  64  65  1   
 44  64  66  1   
 45  67  68  1   
 46  67  69  1   
 47  70  71  1   
 48  70  72  1   
 49  73  74  1   
 50  73  75  1   
 51  76  77  1   
 52  76  78  1   
 53  79  80  1   
 54  79  81  1   
 55  82  83  1   
 56  82  84  1   
 57  85  86  1   
 58  85  87  1   
 59  88  89  1   
 60  88  90  1   
 61  91  92  1   
 62  91  93  1   
 63  94  95  1   
 64  94  96  1   
 65  97  98  1   
 66  97  99  1   
 67 100 101  1   
 68 100 102  1   
 69 103 104  1   
 70 103 105  1   
 71 106 107  1   
 72 106 108  1   
 73 109 110  1   
 74 109 111  1   
 75 112 113  1   
 76 112 114  1   
 77 115 116  1   
 78 115 117  1   
 79 118 119  1   
 80 118 120  1   
 81 121 122  1   
 82 121 123  1   
 83 124 125  1   
 84 124 126  1   
 85 127 128  1   
 86 127 129  1   
 87 130 131  1   
 88 130 132  1   
 89 133 134  1   
 90 133 135  1   
 91 136 137  1   
 92 136 138  1   
 93 139 140  1   
 94 139 141  1   
 95 142 143  1   
 96 142 144  1   
 97 145 146  1   
 98 145 147  1   
 99 148 149  1   
100 148 150  1   
101 151 152  1   
102 151 153  1   
103 154 155  1   
104 154 156  1   
105 157 158  1   
106 157 159  1   
107 160 161  1   
108 160 162  1   
109 163 164  1   
110 163 165  1   
111 166 167  1   
112 166 168  1   
113 169 170  1   
114 169 171  1   
115 172 173  1   
116 172 174  1   
117 175 176  1   
118 175 177  1   
119 178 179  1   
120 178 180  1   
121 181 182  1   
122 181 183  1   
123 184 185  1   
124 184 186  1   
125 187 188  1   
126 187 189  1   
127 190 191  1   
128 190 192  1   
129 193 194  1   
130 193 195  1   
131 196 197  1   
132 196 198  1   
133 199 200  1   
134 199 201  1   
135 202 203  1   
136 202 204  1   
137 205 206  1   
138 205 207  1   
139 208 209  1   
140 208 210  1   
141 211 212  1   
142 211 213  1   
143 214 215  1   
144 214 216  1   
145 217 218  1   
146 217 219  1   
147 220 221  1   
148 220 222  1   
149 223 224  1   
150 223 225  1   
151 226 227  1   
152 226 228  1   
153 229 230  1   
154 229 231  1   
155 232 233  1   
156 232 234  1   
157 235 236  1   
158 235 237  1   
159 238 239  1   
160 238 240  1   
161 241 242  1   
162 241 243  1   
163 244 245  1   
164 244 246  1   
165 247 248  1   
166 247 249  1   
167 250 251  1   
168 250 252  1   
169 253 254  1   
170 253 255  1   
171 256 257  1   
172 256 258  1   
173 259 260  1   
174 259 261  1   
175 262 263  1   
176 262 264  1   
177 265 266  1   
178 265 267  1   
179 268 269  1   
180 268 270  1   
181 271 272  1   
182 271 273  1   
183 274 275  1   
184 274 276  1   
185 277 278  1   
186 277 279  1   
187 280 281  1   
188 280 282  1   
189 283 284  1   
190 283 285  1   
191 286 287  1   
192 286 288  1   
193 289 290  1   
194 289 291  1   
195 292 293  1   
196 292 294  1   
197 295 296  1   
198 295 297  1   
199 298 299  1   
200 298 300  1   
201 301 302  1   
202 301 303  1   
203 304 305  1   
204 304 306  1   
205 307 308  1   
206 307 309  1   
207 310 311  1   
208 310 312  1   
209 313 314  1   
210 313 315  1   
211 316 317  1   
212 316 318  1   
213 319 320  1   
214 319 321  1   
215 322 323  1   
216 322 324  1   
217 325 326  1   
218 325 327  1   
219 328 329  1   
220 328 330  1   
221 331 332  1   
222 331 333  1   
223 334 335  1   
224 334 336  1   
225 337 338  1   
226 337 339  1   
227 340 341  1   
228 340 342  1   
229 343 344  1   
230 343 345  1   
231 346 347  1   
232 346 348  1   
233 349 350  1   
234 349 351  1   
235 352 353  1   
236 352 354  1   
237 355 356  1   
238 355 357  1   
239 358 359  1   
240 358 360  1   
241 361 362  1   
242 361 363  1   
243 364 365  1   
244 364 366  1   
245 367 368  1   
246 367 369  1   
247 370 371  1   
248 370 372  1   
249 373 374  1   
250 373 375  1   
251 376 377  1   
252 376 378  1   
253 379 380  1   
254 379 381  1   
255 382 383  1   
256 382 384  1   
257 385 386  1   
258 385 387  1   
259 388 389  1   
260 388 390  1   
261 391 392  1   
262 391 393  1   
263 394 395  1   
264 394 396  1   
265 397 398  1   
266 397 399  1   
267 400 401  1   
268 400 402  1   
269 403 404  1   
270 403 405  1   
271 406 407  1   
272 406 408  1   
273 409 410  1   
274 409 411  1   
275 412 413  1   
276 412 414  1   
@<TRIPOS>SUBSTRUCTURE
  1 HOH   1 GROUP 4 A **** 0
  2 HOH   4 GROUP 4 A **** 0
  3 HOH   7 GROUP 4 A **** 0
  4 HOH  10 GROUP 4 A **** 0
  5 HOH  13 GROUP 4 A **** 0
  6 HOH  16 GROUP 4 A **** 0
  7 HOH  19 GROUP 4 A **** 0
  8 HOH  22 GROUP 4 A **** 0
  9 HOH  25 GROUP 4 A **** 0
 10 HOH  28 GROUP 4 A **** 0
 11 HOH  31 GROUP 4 A **** 0
 12 HOH  34 GROUP 4 A **** 0
 13 HOH  37 GROUP 4 A **** 0
 14 HOH  40 GROUP 4 A **** 0
 15 HOH  43 GROUP 4 A **** 0
 16 HOH  46 GROUP 4 A **** 0
 17 HOH  49 GROUP 4 A **** 0
 18 HOH  52 GROUP 4 A **** 0
 19 HOH  55 GROUP 4 A **** 0
 20 HOH  58 GROUP 4 A **** 0
 21 HOH  61 GROUP 4 A **** 0
 22 HOH  64 GROUP 4 A **** 0
 23 HOH  67 GROUP 4 A **** 0
 24 HOH  70 GROUP 4 A **** 0
 25 HOH  73 GROUP 4 A **** 0
 26 HOH  76 GROUP 4 A **** 0
 27 HOH  79 GROUP 4 A **** 0
 28 HOH  82 GROUP 4 A **** 0
 29 HOH  85 GROUP 4 A **** 0
 30 HOH  88 GROUP 4 A **** 0
 31 HOH  91 GROUP 4 A **** 0
 32 HOH  94 GROUP 4 A **** 0
 33 HOH  97 GROUP 4 A **** 0
 34 HOH 100 GROUP 4 A **** 0
 35 HOH 103 GROUP 4 A **** 0
 36 HOH 106 GROUP 4 A **** 0
 37 HOH 109 GROUP 4 A **** 0
 38 HOH 112 GROUP 4 A **** 0
 39 HOH 115 GROUP 4 A **** 0
 40 HOH 118 GROUP 4 A **** 0
 41 HOH 121 GROUP 4 A **** 0
 42 HOH 124 GROUP 4 A **** 0
 43 HOH 127 GROUP 4 A **** 0
 44 HOH 130 GROUP 4 A **** 0
 45 HOH 133 GROUP 4 A **** 0
 46 HOH 136 GROUP 4 A **** 0
 47 HOH 139 GROUP 4 A **** 0
 48 HOH 142 GROUP 4 A **** 0
 49 HOH 145 GROUP 4 A **** 0
 50 HOH 148 GROUP 4 A **** 0
 51 HOH 151 GROUP 4 A **** 0
 52 HOH 154 GROUP 4 A **** 0
 53 HOH 157 GROUP 4 A **** 0
 54 HOH 160 GROUP 4 A **** 0
 55 HOH 163 GROUP 4 A **** 0
 56 HOH 166 GROUP 4 A **** 0
 57 HOH 169 GROUP 4 A **** 0
 58 HOH 172 GROUP 4 A **** 0
 59 HOH 175 GROUP 4 A **** 0
 60 HOH 178 GROUP 4 A **** 0
 61 HOH 181 GROUP 4 A **** 0
 62 HOH 184 GROUP 4 A **** 0
 63 HOH 187 GROUP 4 A **** 0
 64 HOH 190 GROUP 4 A **** 0
 65 HOH 193 GROUP 4 A **** 0
 66 HOH 196 GROUP 4 A **** 0
 67 HOH 199 GROUP 4 A **** 0
 68 HOH 202 GROUP 4 A **** 0
 69 HOH 205 GROUP 4 A **** 0
 70 HOH 208 GROUP 4 A **** 0
 71 HOH 211 GROUP 4 A **** 0
 72 HOH 214 GROUP 4 A **** 0
 73 HOH 217 GROUP 4 A **** 0
 74 HOH 220 GROUP 4 A **** 0
 75 HOH 223 GROUP 4 A **** 0
 76 HOH 226 GROUP 4 A **** 0
 77 HOH 229 GROUP 4 A **** 0
 78 HOH 232 GROUP 4 A **** 0
 79 HOH 235 GROUP 4 A **** 0
 80 HOH 238 GROUP 4 A **** 0
 81 HOH 241 GROUP 4 A **** 0
 82 HOH 244 GROUP 4 A **** 0
 83 HOH 247 GROUP 4 A **** 0
 84 HOH 250 GROUP 4 A **** 0
 85 HOH 253 GROUP 4 A **** 0
 86 HOH 256 GROUP 4 A **** 0
 87 HOH 259 GROUP 4 A **** 0
 88 HOH 262 GROUP 4 A **** 0
 89 HOH 265 GROUP 4 A **** 0
 90 HOH 268 GROUP 4 A **** 0
 91 HOH 271 GROUP 4 A **** 0
 92 HOH 274 GROUP 4 A **** 0
 93 HOH 277 GROUP 4 A **** 0
 94 HOH 280 GROUP 4 A **** 0
 95 HOH 283 GROUP 4 A **** 0
 96 HOH 286 GROUP 4 A **** 0
 97 HOH 289 GROUP 4 A **** 0
 98 HOH 292 GROUP 4 A **** 0
 99 HOH 295 GROUP 4 A **** 0
100 HOH 298 GROUP 4 A **** 0
101 HOH 301 GROUP 4 A **** 0
102 HOH 304 GROUP 4 A **** 0
103 HOH 307 GROUP 4 A **** 0
104 HOH 310 GROUP 4 A **** 0
105 HOH 313 GROUP 4 A **** 0
106 HOH 316 GROUP 4 A **** 0
107 HOH 319 GROUP 4 A **** 0
108 HOH 322 GROUP 4 A **** 0
109 HOH 325 GROUP 4 A **** 0
110 HOH 328 GROUP 4 A **** 0
111 HOH 331 GROUP 4 A **** 0
112 HOH 334 GROUP 4 A **** 0
113 HOH 337 GROUP 4 A **** 0
114 HOH 340 GROUP 4 A **** 0
115 HOH 343 GROUP 4 A **** 0
116 HOH 346 GROUP 4 A **** 0
117 HOH 349 GROUP 4 A **** 0
118 HOH 352 GROUP 4 A **** 0
119 HOH 355 GROUP 4 A **** 0
120 HOH 358 GROUP 4 A **** 0
121 HOH 361 GROUP 4 A **** 0
122 HOH 364 GROUP 4 A **** 0
123 HOH 367 GROUP 4 A **** 0
124 HOH 370 GROUP 4 A **** 0
125 HOH 373 GROUP 4 A **** 0
126 HOH 376 GROUP 4 A **** 0
127 HOH 379 GROUP 4 A **** 0
128 HOH 382 GROUP 4 A **** 0
129 HOH 385 GROUP 4 A **** 0
130 HOH 388 GROUP 4 A **** 0
131 HOH 391 GROUP 4 A **** 0
132 HOH 394 GROUP 4 A **** 0
133 HOH 397 GROUP 4 A **** 0
134 HOH 400 GROUP 4 A **** 0
135 HOH 403 GROUP 4 A **** 0
136 HOH 406 GROUP 4 A **** 0
137 HOH 409 GROUP 4 A **** 0
138 HOH 412 GROUP 4 A **** 0

# MOE 2012.10 (io_trps.svl 2012.10)
