@<TRIPOS>MOLECULE
2g1t.C
516 344 172 0 0 
SMALL
USER_CHARGES


@<TRIPOS>ATOM
  1 O        1.4666    21.8576    36.7123 O.3     1 HOH  -0.8340 
  2 H1       1.9107    22.6791    36.5023 H       1 HOH   0.4170 
  3 H2       1.9158    21.5349    37.4935 H       1 HOH   0.4170 
  4 O      -16.4673     9.3634    17.6291 O.3     2 HOH   0.0000 
  5 H1     -15.5073     9.3634    17.6291 H       2 HOH   0.0000 
  6 H2     -16.7576    10.0104    18.2762 H       2 HOH   0.0000 
  7 O      -12.6872     5.9115    12.9923 O.3     3 HOH   0.0000 
  8 H1     -11.7272     5.9115    12.9923 H       3 HOH   0.0000 
  9 H2     -12.9775     6.5586    13.6393 H       3 HOH   0.0000 
 10 O       -8.5170     6.9462    23.1553 O.3     4 HOH   0.0000 
 11 H1      -7.5570     6.9462    23.1553 H       4 HOH   0.0000 
 12 H2      -8.8073     7.5932    23.8024 H       4 HOH   0.0000 
 13 O       -6.1662     5.8440    21.8701 O.3     5 HOH   0.0000 
 14 H1      -5.2062     5.8440    21.8701 H       5 HOH   0.0000 
 15 H2      -6.4565     6.4910    22.5172 H       5 HOH   0.0000 
 16 O       -6.3321     9.8728    34.2460 O.3     6 HOH   0.0000 
 17 H1      -5.3721     9.8728    34.2460 H       6 HOH   0.0000 
 18 H2      -6.6224    10.5198    34.8931 H       6 HOH   0.0000 
 19 O       -4.5094    12.3512    22.3510 O.3     7 HOH   0.0000 
 20 H1      -3.5494    12.3512    22.3510 H       7 HOH   0.0000 
 21 H2      -4.7997    12.9983    22.9981 H       7 HOH   0.0000 
 22 O        2.2556    15.8581    31.9460 O.3     8 HOH  -0.8340 
 23 H1       2.6356    15.6413    31.0947 H       8 HOH   0.4170 
 24 H2       2.0979    16.8014    31.9052 H       8 HOH   0.4170 
 25 O        2.2668    29.2420    34.9018 O.3     9 HOH   0.0000 
 26 H1       3.2268    29.2420    34.9018 H       9 HOH   0.0000 
 27 H2       1.9765    29.8890    35.5488 H       9 HOH   0.0000 
 28 O        1.5488    20.8643    39.3946 O.3    10 HOH  -0.8340 
 29 H1       2.1966    21.4020    39.8502 H      10 HOH   0.4170 
 30 H2       0.8199    21.4606    39.2232 H      10 HOH   0.4170 
 31 O       -1.8140    16.1918    22.4384 O.3    11 HOH   0.0000 
 32 H1      -0.8540    16.1918    22.4384 H      11 HOH   0.0000 
 33 H2      -2.1043    16.8388    23.0855 H      11 HOH   0.0000 
 34 O       16.3962     9.6392    37.8280 O.3    12 HOH   0.0000 
 35 H1      17.3562     9.6392    37.8280 H      12 HOH   0.0000 
 36 H2      16.1059    10.2863    38.4751 H      12 HOH   0.0000 
 37 O       -8.7668     6.5324    34.1567 O.3    13 HOH   0.0000 
 38 H1      -7.8068     6.5324    34.1567 H      13 HOH   0.0000 
 39 H2      -9.0571     7.1794    34.8038 H      13 HOH   0.0000 
 40 O       10.8533    31.4357    26.0419 O.3    14 HOH   0.0000 
 41 H1      11.8133    31.4357    26.0419 H      14 HOH   0.0000 
 42 H2      10.5631    32.0828    26.6889 H      14 HOH   0.0000 
 43 O      -13.3402     5.8203    22.3646 O.3    15 HOH   0.0000 
 44 H1     -12.3802     5.8203    22.3646 H      15 HOH   0.0000 
 45 H2     -13.6304     6.4673    23.0116 H      15 HOH   0.0000 
 46 O       -4.5053     7.6932    34.8334 O.3    16 HOH   0.0000 
 47 H1      -3.5453     7.6932    34.8334 H      16 HOH   0.0000 
 48 H2      -4.7956     8.3403    35.4804 H      16 HOH   0.0000 
 49 O       22.6189    23.6326    36.1186 O.3    17 HOH   0.0000 
 50 H1      23.5789    23.6326    36.1186 H      17 HOH   0.0000 
 51 H2      22.3286    24.2796    36.7657 H      17 HOH   0.0000 
 52 O        3.3907    17.0203    28.4077 O.3    18 HOH  -0.8340 
 53 H1       2.6214    17.5263    28.1464 H      18 HOH   0.4170 
 54 H2       3.0391    16.3060    28.9391 H      18 HOH   0.4170 
 55 O        0.8858    26.5900    46.5508 O.3    19 HOH   0.0000 
 56 H1       1.8458    26.5900    46.5508 H      19 HOH   0.0000 
 57 H2       0.5956    27.2370    47.1979 H      19 HOH   0.0000 
 58 O       -2.1002    12.1425    39.0620 O.3    20 HOH  -0.8340 
 59 H1      -2.3011    12.6640    38.2848 H      20 HOH   0.4170 
 60 H2      -2.5175    11.2969    38.8979 H      20 HOH   0.4170 
 61 O       -3.2500    15.7121    25.8017 O.3    21 HOH   0.0000 
 62 H1      -2.2900    15.7121    25.8017 H      21 HOH   0.0000 
 63 H2      -3.5402    16.3592    26.4487 H      21 HOH   0.0000 
 64 O       -1.9614    29.6525    35.6433 O.3    22 HOH   0.0000 
 65 H1      -1.0014    29.6525    35.6433 H      22 HOH   0.0000 
 66 H2      -2.2516    30.2996    36.2903 H      22 HOH   0.0000 
 67 O       -8.7420    23.5289    18.1229 O.3    23 HOH   0.0000 
 68 H1      -7.7820    23.5289    18.1229 H      23 HOH   0.0000 
 69 H2      -9.0323    24.1759    18.7700 H      23 HOH   0.0000 
 70 O       -4.1411    -2.0358    17.5916 O.3    24 HOH   0.0000 
 71 H1      -3.1811    -2.0358    17.5916 H      24 HOH   0.0000 
 72 H2      -4.4313    -1.3887    18.2387 H      24 HOH   0.0000 
 73 O       15.2102    17.9370    32.1999 O.3    25 HOH   0.0000 
 74 H1      16.1702    17.9370    32.1999 H      25 HOH   0.0000 
 75 H2      14.9199    18.5840    32.8469 H      25 HOH   0.0000 
 76 O       16.6114     9.0837    34.3410 O.3    26 HOH   0.0000 
 77 H1      17.5714     9.0837    34.3410 H      26 HOH   0.0000 
 78 H2      16.3211     9.7307    34.9881 H      26 HOH   0.0000 
 79 O        0.2528    35.8006    30.4013 O.3    27 HOH   0.0000 
 80 H1       1.2128    35.8006    30.4013 H      27 HOH   0.0000 
 81 H2      -0.0375    36.4476    31.0483 H      27 HOH   0.0000 
 82 O       -1.5889    22.3405    17.1358 O.3    28 HOH   0.0000 
 83 H1      -0.6289    22.3405    17.1358 H      28 HOH   0.0000 
 84 H2      -1.8791    22.9875    17.7828 H      28 HOH   0.0000 
 85 O       -3.3340     3.7215    28.0211 O.3    29 HOH   0.0000 
 86 H1      -2.3740     3.7215    28.0211 H      29 HOH   0.0000 
 87 H2      -3.6243     4.3686    28.6681 H      29 HOH   0.0000 
 88 O      -15.8889     5.7769    13.7642 O.3    30 HOH   0.0000 
 89 H1     -14.9289     5.7769    13.7642 H      30 HOH   0.0000 
 90 H2     -16.1792     6.4240    14.4112 H      30 HOH   0.0000 
 91 O        9.5455    13.9228    26.9913 O.3    31 HOH   0.0000 
 92 H1      10.5055    13.9228    26.9913 H      31 HOH   0.0000 
 93 H2       9.2552    14.5699    27.6384 H      31 HOH   0.0000 
 94 O       -7.3706    13.1106    44.8485 O.3    32 HOH   0.0000 
 95 H1      -6.4106    13.1106    44.8485 H      32 HOH   0.0000 
 96 H2      -7.6609    13.7577    45.4956 H      32 HOH   0.0000 
 97 O        3.1186    31.3540    27.1828 O.3    33 HOH   0.0000 
 98 H1       4.0786    31.3540    27.1828 H      33 HOH   0.0000 
 99 H2       2.8283    32.0010    27.8299 H      33 HOH   0.0000 
100 O       12.2317    11.6776    41.1921 O.3    34 HOH   0.0000 
101 H1      13.1917    11.6776    41.1921 H      34 HOH   0.0000 
102 H2      11.9415    12.3247    41.8391 H      34 HOH   0.0000 
103 O        2.2970    24.7267    36.1308 O.3    35 HOH   0.0000 
104 H1       3.2570    24.7267    36.1308 H      35 HOH   0.0000 
105 H2       2.0067    25.3737    36.7778 H      35 HOH   0.0000 
106 O       -2.8253    12.1412    27.9340 O.3    36 HOH   0.0000 
107 H1      -1.8653    12.1412    27.9340 H      36 HOH   0.0000 
108 H2      -3.1156    12.7882    28.5810 H      36 HOH   0.0000 
109 O      -17.4398     1.2964    26.3059 O.3    37 HOH   0.0000 
110 H1     -16.4798     1.2964    26.3059 H      37 HOH   0.0000 
111 H2     -17.7301     1.9435    26.9530 H      37 HOH   0.0000 
112 O       -5.6605    24.3583    46.3983 O.3    38 HOH   0.0000 
113 H1      -4.7005    24.3583    46.3983 H      38 HOH   0.0000 
114 H2      -5.9507    25.0053    47.0453 H      38 HOH   0.0000 
115 O       15.4540    11.4838    31.3361 O.3    39 HOH   0.0000 
116 H1      16.4140    11.4838    31.3361 H      39 HOH   0.0000 
117 H2      15.1638    12.1309    31.9831 H      39 HOH   0.0000 
118 O       -6.3742    10.3132    12.6354 O.3    40 HOH   0.0000 
119 H1      -5.4142    10.3132    12.6354 H      40 HOH   0.0000 
120 H2      -6.6645    10.9603    13.2825 H      40 HOH   0.0000 
121 O      -13.6380     6.6118     9.7936 O.3    41 HOH   0.0000 
122 H1     -12.6780     6.6118     9.7936 H      41 HOH   0.0000 
123 H2     -13.9283     7.2588    10.4406 H      41 HOH   0.0000 
124 O        5.4146    20.7719    40.7194 O.3    42 HOH  -0.8340 
125 H1       5.3161    20.1320    40.0144 H      42 HOH   0.4170 
126 H2       6.3311    21.0437    40.6705 H      42 HOH   0.4170 
127 O       18.3220    25.9000    41.8307 O.3    43 HOH   0.0000 
128 H1      19.2820    25.9000    41.8307 H      43 HOH   0.0000 
129 H2      18.0318    26.5471    42.4777 H      43 HOH   0.0000 
130 O       -3.6724     9.4083    39.3108 O.3    44 HOH  -0.8340 
131 H1      -3.3095     8.8155    39.9690 H      44 HOH   0.4170 
132 H2      -4.5143     9.6833    39.6736 H      44 HOH   0.4170 
133 O       11.4883    17.1493    24.5502 O.3    45 HOH   0.0000 
134 H1      12.4483    17.1493    24.5502 H      45 HOH   0.0000 
135 H2      11.1980    17.7963    25.1972 H      45 HOH   0.0000 
136 O       21.2406    14.1304    35.5730 O.3    46 HOH   0.0000 
137 H1      22.2006    14.1304    35.5730 H      46 HOH   0.0000 
138 H2      20.9504    14.7774    36.2200 H      46 HOH   0.0000 
139 O        2.9237    23.9397    22.2627 O.3    47 HOH   0.0000 
140 H1       3.8837    23.9397    22.2627 H      47 HOH   0.0000 
141 H2       2.6334    24.5868    22.9098 H      47 HOH   0.0000 
142 O       -6.2087     5.1887    34.6317 O.3    48 HOH   0.0000 
143 H1      -5.2487     5.1887    34.6317 H      48 HOH   0.0000 
144 H2      -6.4990     5.8357    35.2788 H      48 HOH   0.0000 
145 O      -14.6776    -0.0213    25.7704 O.3    49 HOH   0.0000 
146 H1     -13.7176    -0.0213    25.7704 H      49 HOH   0.0000 
147 H2     -14.9679     0.6257    26.4174 H      49 HOH   0.0000 
148 O      -14.3678     9.3432    12.8015 O.3    50 HOH   0.0000 
149 H1     -13.4078     9.3432    12.8015 H      50 HOH   0.0000 
150 H2     -14.6580     9.9902    13.4486 H      50 HOH   0.0000 
151 O       12.6679    30.5747    50.7364 O.3    51 HOH   0.0000 
152 H1      13.6279    30.5747    50.7364 H      51 HOH   0.0000 
153 H2      12.3776    31.2217    51.3835 H      51 HOH   0.0000 
154 O       19.1127    16.1572    34.4485 O.3    52 HOH   0.0000 
155 H1      20.0727    16.1572    34.4485 H      52 HOH   0.0000 
156 H2      18.8224    16.8043    35.0956 H      52 HOH   0.0000 
157 O       15.9559    16.8498    34.8880 O.3    53 HOH   0.0000 
158 H1      16.9159    16.8498    34.8880 H      53 HOH   0.0000 
159 H2      15.6656    17.4969    35.5351 H      53 HOH   0.0000 
160 O       -3.0789     0.0255    20.1041 O.3    54 HOH   0.0000 
161 H1      -2.1189     0.0255    20.1041 H      54 HOH   0.0000 
162 H2      -3.3692     0.6726    20.7511 H      54 HOH   0.0000 
163 O       -0.8195    11.4994    29.9328 O.3    55 HOH   0.0000 
164 H1       0.1405    11.4994    29.9328 H      55 HOH   0.0000 
165 H2      -1.1098    12.1464    30.5798 H      55 HOH   0.0000 
166 O      -13.3445    12.1200    11.1216 O.3    56 HOH   0.0000 
167 H1     -12.3845    12.1200    11.1216 H      56 HOH   0.0000 
168 H2     -13.6347    12.7670    11.7687 H      56 HOH   0.0000 
169 O        5.7466    35.4977    35.6934 O.3    57 HOH   0.0000 
170 H1       6.7066    35.4977    35.6934 H      57 HOH   0.0000 
171 H2       5.4564    36.1447    36.3404 H      57 HOH   0.0000 
172 O       12.6689    32.0773    46.7485 O.3    58 HOH   0.0000 
173 H1      13.6289    32.0773    46.7485 H      58 HOH   0.0000 
174 H2      12.3787    32.7243    47.3956 H      58 HOH   0.0000 
175 O       16.5160     9.5102    23.3864 O.3    59 HOH   0.0000 
176 H1      17.4760     9.5102    23.3864 H      59 HOH   0.0000 
177 H2      16.2257    10.1572    24.0334 H      59 HOH   0.0000 
178 O       17.2342    28.0542    39.7013 O.3    60 HOH   0.0000 
179 H1      18.1942    28.0542    39.7013 H      60 HOH   0.0000 
180 H2      16.9440    28.7013    40.3483 H      60 HOH   0.0000 
181 O       23.1216    22.2468    30.9290 O.3    61 HOH   0.0000 
182 H1      24.0816    22.2468    30.9290 H      61 HOH   0.0000 
183 H2      22.8314    22.8938    31.5760 H      61 HOH   0.0000 
184 O       -3.5523    35.2081    23.3287 O.3    62 HOH   0.0000 
185 H1      -2.5923    35.2081    23.3287 H      62 HOH   0.0000 
186 H2      -3.8425    35.8551    23.9757 H      62 HOH   0.0000 
187 O       11.8484    20.1185    24.4393 O.3    63 HOH   0.0000 
188 H1      12.8084    20.1185    24.4393 H      63 HOH   0.0000 
189 H2      11.5581    20.7655    25.0863 H      63 HOH   0.0000 
190 O        8.3244    38.7006    48.4954 O.3    64 HOH   0.0000 
191 H1       9.2844    38.7006    48.4954 H      64 HOH   0.0000 
192 H2       8.0341    39.3477    49.1425 H      64 HOH   0.0000 
193 O        4.6331    21.4701    35.7020 O.3    65 HOH  -0.8340 
194 H1       4.4322    21.9915    34.9249 H      65 HOH   0.4170 
195 H2       4.2158    20.6244    35.5380 H      65 HOH   0.4170 
196 O        7.4794     5.8302    46.5221 O.3    66 HOH   0.0000 
197 H1       8.4394     5.8302    46.5221 H      66 HOH   0.0000 
198 H2       7.1891     6.4773    47.1691 H      66 HOH   0.0000 
199 O        5.2228    19.5114    37.8572 O.3    67 HOH  -0.8340 
200 H1       5.4706    20.4199    37.6856 H      67 HOH   0.4170 
201 H2       4.4617    19.3603    37.2968 H      67 HOH   0.4170 
202 O      -18.5469     2.8375    28.8881 O.3    68 HOH   0.0000 
203 H1     -17.5869     2.8375    28.8881 H      68 HOH   0.0000 
204 H2     -18.8372     3.4846    29.5351 H      68 HOH   0.0000 
205 O       -6.1179    34.5961    31.7889 O.3    69 HOH   0.0000 
206 H1      -5.1579    34.5961    31.7889 H      69 HOH   0.0000 
207 H2      -6.4081    35.2432    32.4359 H      69 HOH   0.0000 
208 O      -23.2547     4.2379    23.4462 O.3    70 HOH   0.0000 
209 H1     -22.2947     4.2379    23.4462 H      70 HOH   0.0000 
210 H2     -23.5449     4.8849    24.0932 H      70 HOH   0.0000 
211 O       10.8106     9.5525    39.4462 O.3    71 HOH   0.0000 
212 H1      11.7706     9.5525    39.4462 H      71 HOH   0.0000 
213 H2      10.5203    10.1996    40.0932 H      71 HOH   0.0000 
214 O      -13.4899    19.8281    46.4030 O.3    72 HOH   0.0000 
215 H1     -12.5299    19.8281    46.4030 H      72 HOH   0.0000 
216 H2     -13.7801    20.4751    47.0500 H      72 HOH   0.0000 
217 O      -13.0106    28.0202    38.7405 O.3    73 HOH   0.0000 
218 H1     -12.0506    28.0202    38.7405 H      73 HOH   0.0000 
219 H2     -13.3009    28.6672    39.3876 H      73 HOH   0.0000 
220 O      -18.4166    -1.9558    23.6314 O.3    74 HOH   0.0000 
221 H1     -17.4566    -1.9558    23.6314 H      74 HOH   0.0000 
222 H2     -18.7069    -1.3087    24.2785 H      74 HOH   0.0000 
223 O      -21.8166     4.6328    16.5326 O.3    75 HOH   0.0000 
224 H1     -20.8566     4.6328    16.5326 H      75 HOH   0.0000 
225 H2     -22.1069     5.2798    17.1796 H      75 HOH   0.0000 
226 O       -9.5566    28.9344    22.1729 O.3    76 HOH   0.0000 
227 H1      -8.5966    28.9344    22.1729 H      76 HOH   0.0000 
228 H2      -9.8468    29.5814    22.8200 H      76 HOH   0.0000 
229 O       18.4266    17.9740    32.0355 O.3    77 HOH   0.0000 
230 H1      19.3866    17.9740    32.0355 H      77 HOH   0.0000 
231 H2      18.1364    18.6210    32.6826 H      77 HOH   0.0000 
232 O       -5.6853     2.8401    32.7507 O.3    78 HOH   0.0000 
233 H1      -4.7253     2.8401    32.7507 H      78 HOH   0.0000 
234 H2      -5.9756     3.4871    33.3978 H      78 HOH   0.0000 
235 O      -21.4090    -0.8557    23.2283 O.3    79 HOH   0.0000 
236 H1     -20.4490    -0.8557    23.2283 H      79 HOH   0.0000 
237 H2     -21.6993    -0.2087    23.8754 H      79 HOH   0.0000 
238 O      -22.2196     3.8634    20.5065 O.3    80 HOH   0.0000 
239 H1     -21.2596     3.8634    20.5065 H      80 HOH   0.0000 
240 H2     -22.5099     4.5105    21.1536 H      80 HOH   0.0000 
241 O      -11.5019    31.3869    22.2439 O.3    81 HOH   0.0000 
242 H1     -10.5419    31.3869    22.2439 H      81 HOH   0.0000 
243 H2     -11.7921    32.0339    22.8910 H      81 HOH   0.0000 
244 O        7.8339     9.0025    39.2872 O.3    82 HOH   0.0000 
245 H1       8.7939     9.0025    39.2872 H      82 HOH   0.0000 
246 H2       7.5436     9.6495    39.9342 H      82 HOH   0.0000 
247 O       19.5456    32.1199    33.7490 O.3    83 HOH   0.0000 
248 H1      20.5056    32.1199    33.7490 H      83 HOH   0.0000 
249 H2      19.2553    32.7670    34.3960 H      83 HOH   0.0000 
250 O        0.4168    32.7440    27.9208 O.3    84 HOH   0.0000 
251 H1       1.3768    32.7440    27.9208 H      84 HOH   0.0000 
252 H2       0.1265    33.3911    28.5679 H      84 HOH   0.0000 
253 O       14.1990    20.3986    52.7794 O.3    85 HOH   0.0000 
254 H1      15.1590    20.3986    52.7794 H      85 HOH   0.0000 
255 H2      13.9087    21.0457    53.4264 H      85 HOH   0.0000 
256 O       13.1447    12.8972    44.2986 O.3    86 HOH   0.0000 
257 H1      14.1047    12.8972    44.2986 H      86 HOH   0.0000 
258 H2      12.8544    13.5443    44.9456 H      86 HOH   0.0000 
259 O       16.6317     7.2060    26.8565 O.3    87 HOH   0.0000 
260 H1      17.5917     7.2060    26.8565 H      87 HOH   0.0000 
261 H2      16.3414     7.8530    27.5035 H      87 HOH   0.0000 
262 O      -19.9276     1.9050    21.6617 O.3    88 HOH   0.0000 
263 H1     -18.9676     1.9050    21.6617 H      88 HOH   0.0000 
264 H2     -20.2179     2.5520    22.3087 H      88 HOH   0.0000 
265 O       25.9547    23.4645    32.6559 O.3    89 HOH   0.0000 
266 H1      26.9147    23.4645    32.6559 H      89 HOH   0.0000 
267 H2      25.6645    24.1115    33.3029 H      89 HOH   0.0000 
268 O       -2.8175    15.7675    15.8867 O.3    90 HOH   0.0000 
269 H1      -1.8575    15.7675    15.8867 H      90 HOH   0.0000 
270 H2      -3.1078    16.4145    16.5338 H      90 HOH   0.0000 
271 O      -11.4273    23.4606    14.4216 O.3    91 HOH   0.0000 
272 H1     -10.4673    23.4606    14.4216 H      91 HOH   0.0000 
273 H2     -11.7176    24.1077    15.0686 H      91 HOH   0.0000 
274 O      -19.3489    13.6076    16.0681 O.3    92 HOH   0.0000 
275 H1     -18.3889    13.6076    16.0681 H      92 HOH   0.0000 
276 H2     -19.6392    14.2547    16.7151 H      92 HOH   0.0000 
277 O      -23.4823    15.4534    34.4724 O.3    93 HOH   0.0000 
278 H1     -22.5223    15.4534    34.4724 H      93 HOH   0.0000 
279 H2     -23.7725    16.1004    35.1195 H      93 HOH   0.0000 
280 O       -0.4800    15.2947    37.9993 O.3    94 HOH  -0.8340 
281 H1      -0.5714    16.0166    38.6212 H      94 HOH   0.4170 
282 H2      -1.3525    14.9034    37.9560 H      94 HOH   0.4170 
283 O       -2.4050    13.7170    23.7377 O.3    95 HOH   0.0000 
284 H1      -1.4450    13.7170    23.7377 H      95 HOH   0.0000 
285 H2      -2.6953    14.3641    24.3847 H      95 HOH   0.0000 
286 O       21.8207    14.7253    38.3896 O.3    96 HOH   0.0000 
287 H1      22.7807    14.7253    38.3896 H      96 HOH   0.0000 
288 H2      21.5305    15.3723    39.0367 H      96 HOH   0.0000 
289 O      -16.4676     8.5161    14.8740 O.3    97 HOH   0.0000 
290 H1     -15.5076     8.5161    14.8740 H      97 HOH   0.0000 
291 H2     -16.7579     9.1631    15.5211 H      97 HOH   0.0000 
292 O       -2.9585     7.4193    37.2181 O.3    98 HOH  -0.8340 
293 H1      -3.3205     8.0922    37.7947 H      98 HOH   0.4170 
294 H2      -3.3486     6.6021    37.5284 H      98 HOH   0.4170 
295 O        3.4281    31.8492    36.2962 O.3    99 HOH   0.0000 
296 H1       4.3881    31.8492    36.2962 H      99 HOH   0.0000 
297 H2       3.1378    32.4962    36.9432 H      99 HOH   0.0000 
298 O        2.7161    18.0485    38.7928 O.3   100 HOH  -0.8340 
299 H1       2.8242    18.2325    37.8597 H     100 HOH   0.4170 
300 H2       2.3798    18.8655    39.1611 H     100 HOH   0.4170 
301 O       -5.6119    -1.0614    30.7758 O.3   101 HOH   0.0000 
302 H1      -4.6519    -1.0614    30.7758 H     101 HOH   0.0000 
303 H2      -5.9022    -0.4143    31.4228 H     101 HOH   0.0000 
304 O       -4.0700    22.7510    23.9585 O.3   102 HOH   0.0000 
305 H1      -3.1100    22.7510    23.9585 H     102 HOH   0.0000 
306 H2      -4.3602    23.3980    24.6055 H     102 HOH   0.0000 
307 O       -2.9544    -2.6035    14.8302 O.3   103 HOH   0.0000 
308 H1      -1.9944    -2.6035    14.8302 H     103 HOH   0.0000 
309 H2      -3.2446    -1.9564    15.4773 H     103 HOH   0.0000 
310 O       -7.8454    34.1666    29.3197 O.3   104 HOH   0.0000 
311 H1      -6.8854    34.1666    29.3197 H     104 HOH   0.0000 
312 H2      -8.1357    34.8136    29.9667 H     104 HOH   0.0000 
313 O        5.8199    39.4641    47.0743 O.3   105 HOH   0.0000 
314 H1       6.7799    39.4641    47.0743 H     105 HOH   0.0000 
315 H2       5.5296    40.1111    47.7214 H     105 HOH   0.0000 
316 O      -18.8141    16.4262    32.5208 O.3   106 HOH   0.0000 
317 H1     -17.8541    16.4262    32.5208 H     106 HOH   0.0000 
318 H2     -19.1044    17.0733    33.1679 H     106 HOH   0.0000 
319 O       14.8661    12.8919    40.3223 O.3   107 HOH   0.0000 
320 H1      15.8261    12.8919    40.3223 H     107 HOH   0.0000 
321 H2      14.5758    13.5389    40.9693 H     107 HOH   0.0000 
322 O        2.3571    24.7225    19.2579 O.3   108 HOH   0.0000 
323 H1       3.3171    24.7225    19.2579 H     108 HOH   0.0000 
324 H2       2.0668    25.3695    19.9050 H     108 HOH   0.0000 
325 O       -5.9923     3.5403    37.2128 O.3   109 HOH   0.0000 
326 H1      -5.0323     3.5403    37.2128 H     109 HOH   0.0000 
327 H2      -6.2825     4.1874    37.8599 H     109 HOH   0.0000 
328 O       17.1858     4.7917    28.7109 O.3   110 HOH   0.0000 
329 H1      18.1458     4.7917    28.7109 H     110 HOH   0.0000 
330 H2      16.8956     5.4388    29.3580 H     110 HOH   0.0000 
331 O       -0.3264    29.1364    45.8375 O.3   111 HOH   0.0000 
332 H1       0.6336    29.1364    45.8375 H     111 HOH   0.0000 
333 H2      -0.6167    29.7834    46.4845 H     111 HOH   0.0000 
334 O        8.0813    10.5742    51.6391 O.3   112 HOH   0.0000 
335 H1       9.0413    10.5742    51.6391 H     112 HOH   0.0000 
336 H2       7.7911    11.2212    52.2862 H     112 HOH   0.0000 
337 O       -3.7032     3.1629    10.1314 O.3   113 HOH   0.0000 
338 H1      -2.7432     3.1629    10.1314 H     113 HOH   0.0000 
339 H2      -3.9935     3.8100    10.7785 H     113 HOH   0.0000 
340 O       23.0377    21.4827    33.9557 O.3   114 HOH   0.0000 
341 H1      23.9977    21.4827    33.9557 H     114 HOH   0.0000 
342 H2      22.7474    22.1298    34.6027 H     114 HOH   0.0000 
343 O      -23.9309    17.5440    22.3372 O.3   115 HOH   0.0000 
344 H1     -22.9709    17.5440    22.3372 H     115 HOH   0.0000 
345 H2     -24.2212    18.1910    22.9843 H     115 HOH   0.0000 
346 O        0.1425    -4.8485    25.9448 O.3   116 HOH   0.0000 
347 H1       1.1025    -4.8485    25.9448 H     116 HOH   0.0000 
348 H2      -0.1478    -4.2014    26.5919 H     116 HOH   0.0000 
349 O       14.4985    14.4310    46.5246 O.3   117 HOH   0.0000 
350 H1      15.4585    14.4310    46.5246 H     117 HOH   0.0000 
351 H2      14.2082    15.0780    47.1717 H     117 HOH   0.0000 
352 O      -21.2100    14.7599    32.4751 O.3   118 HOH   0.0000 
353 H1     -20.2500    14.7599    32.4751 H     118 HOH   0.0000 
354 H2     -21.5003    15.4069    33.1221 H     118 HOH   0.0000 
355 O        8.8204    15.9152    24.1120 O.3   119 HOH   0.0000 
356 H1       9.7804    15.9152    24.1120 H     119 HOH   0.0000 
357 H2       8.5302    16.5622    24.7591 H     119 HOH   0.0000 
358 O        4.7334    24.4565    34.0504 O.3   120 HOH  -0.8340 
359 H1       3.9380    24.5385    33.5242 H     120 HOH   0.4170 
360 H2       5.4259    24.2825    33.4130 H     120 HOH   0.4170 
361 O        2.7143    22.1127    53.9898 O.3   121 HOH   0.0000 
362 H1       3.6743    22.1127    53.9898 H     121 HOH   0.0000 
363 H2       2.4240    22.7597    54.6369 H     121 HOH   0.0000 
364 O        0.5221    35.5284    26.5993 O.3   122 HOH   0.0000 
365 H1       1.4821    35.5284    26.5993 H     122 HOH   0.0000 
366 H2       0.2318    36.1754    27.2463 H     122 HOH   0.0000 
367 O        8.5575    33.4754    26.6143 O.3   123 HOH   0.0000 
368 H1       9.5175    33.4754    26.6143 H     123 HOH   0.0000 
369 H2       8.2673    34.1225    27.2613 H     123 HOH   0.0000 
370 O       19.8977    25.5409    44.6658 O.3   124 HOH   0.0000 
371 H1      20.8577    25.5409    44.6658 H     124 HOH   0.0000 
372 H2      19.6074    26.1880    45.3128 H     124 HOH   0.0000 
373 O       15.1612    14.9947    16.0380 O.3   125 HOH   0.0000 
374 H1      16.1212    14.9947    16.0380 H     125 HOH   0.0000 
375 H2      14.8710    15.6418    16.6850 H     125 HOH   0.0000 
376 O       24.2169    25.1569    30.8955 O.3   126 HOH   0.0000 
377 H1      25.1769    25.1569    30.8955 H     126 HOH   0.0000 
378 H2      23.9266    25.8040    31.5426 H     126 HOH   0.0000 
379 O       12.9981    16.3891    22.0258 O.3   127 HOH   0.0000 
380 H1      13.9581    16.3891    22.0258 H     127 HOH   0.0000 
381 H2      12.7079    17.0362    22.6729 H     127 HOH   0.0000 
382 O       10.3326    30.6808    23.0700 O.3   128 HOH   0.0000 
383 H1      11.2926    30.6808    23.0700 H     128 HOH   0.0000 
384 H2      10.0423    31.3278    23.7171 H     128 HOH   0.0000 
385 O       17.9819    12.1914    23.9195 O.3   129 HOH   0.0000 
386 H1      18.9419    12.1914    23.9195 H     129 HOH   0.0000 
387 H2      17.6916    12.8384    24.5666 H     129 HOH   0.0000 
388 O       26.3536    22.9039    29.5845 O.3   130 HOH   0.0000 
389 H1      27.3136    22.9039    29.5845 H     130 HOH   0.0000 
390 H2      26.0633    23.5510    30.2316 H     130 HOH   0.0000 
391 O      -10.7273    21.9826    11.7659 O.3   131 HOH   0.0000 
392 H1      -9.7673    21.9826    11.7659 H     131 HOH   0.0000 
393 H2     -11.0175    22.6296    12.4130 H     131 HOH   0.0000 
394 O       -8.6533    -4.9866    18.6351 O.3   132 HOH   0.0000 
395 H1      -7.6933    -4.9866    18.6351 H     132 HOH   0.0000 
396 H2      -8.9436    -4.3396    19.2821 H     132 HOH   0.0000 
397 O      -22.0998    12.2482    33.6615 O.3   133 HOH   0.0000 
398 H1     -21.1398    12.2482    33.6615 H     133 HOH   0.0000 
399 H2     -22.3901    12.8953    34.3085 H     133 HOH   0.0000 
400 O       -3.1143    17.3453    13.2604 O.3   134 HOH   0.0000 
401 H1      -2.1543    17.3453    13.2604 H     134 HOH   0.0000 
402 H2      -3.4046    17.9923    13.9074 H     134 HOH   0.0000 
403 O      -14.5857    23.5346    14.2965 O.3   135 HOH   0.0000 
404 H1     -13.6257    23.5346    14.2965 H     135 HOH   0.0000 
405 H2     -14.8760    24.1816    14.9436 H     135 HOH   0.0000 
406 O        5.2963     9.7409    22.3486 O.3   136 HOH   0.0000 
407 H1       6.2563     9.7409    22.3486 H     136 HOH   0.0000 
408 H2       5.0060    10.3880    22.9956 H     136 HOH   0.0000 
409 O      -12.5723    12.1600    47.0527 O.3   137 HOH   0.0000 
410 H1     -11.6123    12.1600    47.0527 H     137 HOH   0.0000 
411 H2     -12.8626    12.8071    47.6998 H     137 HOH   0.0000 
412 O       -3.2266     8.6029     8.5625 O.3   138 HOH   0.0000 
413 H1      -2.2666     8.6029     8.5625 H     138 HOH   0.0000 
414 H2      -3.5169     9.2500     9.2095 H     138 HOH   0.0000 
415 O       15.0168    16.4380    40.4567 O.3   139 HOH   0.0000 
416 H1      15.9768    16.4380    40.4567 H     139 HOH   0.0000 
417 H2      14.7265    17.0851    41.1038 H     139 HOH   0.0000 
418 O       12.8915    15.2242    49.9682 O.3   140 HOH   0.0000 
419 H1      13.8515    15.2242    49.9682 H     140 HOH   0.0000 
420 H2      12.6012    15.8713    50.6153 H     140 HOH   0.0000 
421 O       10.3656    35.3175    32.5839 O.3   141 HOH   0.0000 
422 H1      11.3256    35.3175    32.5839 H     141 HOH   0.0000 
423 H2      10.0753    35.9645    33.2309 H     141 HOH   0.0000 
424 O      -13.0356     9.9197     8.6969 O.3   142 HOH   0.0000 
425 H1     -12.0756     9.9197     8.6969 H     142 HOH   0.0000 
426 H2     -13.3258    10.5667     9.3440 H     142 HOH   0.0000 
427 O       13.9509    25.4478    24.5750 O.3   143 HOH   0.0000 
428 H1      14.9109    25.4478    24.5750 H     143 HOH   0.0000 
429 H2      13.6606    26.0948    25.2220 H     143 HOH   0.0000 
430 O       -6.4887    23.7018    16.2705 O.3   144 HOH   0.0000 
431 H1      -5.5287    23.7018    16.2705 H     144 HOH   0.0000 
432 H2      -6.7790    24.3488    16.9175 H     144 HOH   0.0000 
433 O       -4.3741    21.5405    16.3362 O.3   145 HOH   0.0000 
434 H1      -3.4141    21.5405    16.3362 H     145 HOH   0.0000 
435 H2      -4.6644    22.1875    16.9833 H     145 HOH   0.0000 
436 O       -4.1237    19.9924    13.9359 O.3   146 HOH   0.0000 
437 H1      -3.1637    19.9924    13.9359 H     146 HOH   0.0000 
438 H2      -4.4139    20.6394    14.5829 H     146 HOH   0.0000 
439 O        4.2422    21.6035    32.6122 O.3   147 HOH  -0.8340 
440 H1       3.7844    21.7835    31.7911 H     147 HOH   0.4170 
441 H2       5.1063    21.9989    32.4969 H     147 HOH   0.4170 
442 O       -6.6724    19.8679    12.1481 O.3   148 HOH   0.0000 
443 H1      -5.7124    19.8679    12.1481 H     148 HOH   0.0000 
444 H2      -6.9626    20.5149    12.7951 H     148 HOH   0.0000 
445 O       21.2611    29.3343    34.2760 O.3   149 HOH   0.0000 
446 H1      22.2211    29.3343    34.2760 H     149 HOH   0.0000 
447 H2      20.9708    29.9813    34.9230 H     149 HOH   0.0000 
448 O        9.2750    36.8317    35.0507 O.3   150 HOH   0.0000 
449 H1      10.2350    36.8317    35.0507 H     150 HOH   0.0000 
450 H2       8.9847    37.4788    35.6978 H     150 HOH   0.0000 
451 O      -10.9361     4.9840    10.1238 O.3   151 HOH   0.0000 
452 H1      -9.9761     4.9840    10.1238 H     151 HOH   0.0000 
453 H2     -11.2263     5.6311    10.7708 H     151 HOH   0.0000 
454 O        6.9540    41.4851    45.0254 O.3   152 HOH   0.0000 
455 H1       7.9140    41.4851    45.0254 H     152 HOH   0.0000 
456 H2       6.6638    42.1322    45.6725 H     152 HOH   0.0000 
457 O       -3.8101     4.9404    38.6568 O.3   153 HOH   0.0000 
458 H1      -2.8501     4.9404    38.6568 H     153 HOH   0.0000 
459 H2      -4.1004     5.5875    39.3039 H     153 HOH   0.0000 
460 O      -14.9380    20.1062    49.2120 O.3   154 HOH   0.0000 
461 H1     -13.9780    20.1062    49.2120 H     154 HOH   0.0000 
462 H2     -15.2283    20.7533    49.8590 H     154 HOH   0.0000 
463 O       14.0598    12.1701    48.5987 O.3   155 HOH   0.0000 
464 H1      15.0198    12.1701    48.5987 H     155 HOH   0.0000 
465 H2      13.7695    12.8172    49.2457 H     155 HOH   0.0000 
466 O       -6.0379    35.5146    27.1578 O.3   156 HOH   0.0000 
467 H1      -5.0779    35.5146    27.1578 H     156 HOH   0.0000 
468 H2      -6.3281    36.1616    27.8048 H     156 HOH   0.0000 
469 O       -1.3108    11.4429    25.3777 O.3   157 HOH   0.0000 
470 H1      -0.3508    11.4429    25.3777 H     157 HOH   0.0000 
471 H2      -1.6011    12.0900    26.0247 H     157 HOH   0.0000 
472 O      -22.1229     9.2319    34.0715 O.3   158 HOH   0.0000 
473 H1     -21.1629     9.2319    34.0715 H     158 HOH   0.0000 
474 H2     -22.4132     9.8789    34.7185 H     158 HOH   0.0000 
475 O        7.1784     7.3232    41.9195 O.3   159 HOH   0.0000 
476 H1       8.1384     7.3232    41.9195 H     159 HOH   0.0000 
477 H2       6.8881     7.9702    42.5666 H     159 HOH   0.0000 
478 O      -15.9009    -1.1196    10.8945 O.3   160 HOH   0.0000 
479 H1     -14.9409    -1.1196    10.8945 H     160 HOH   0.0000 
480 H2     -16.1912    -0.4725    11.5415 H     160 HOH   0.0000 
481 O       22.5759    25.7495    28.6034 O.3   161 HOH   0.0000 
482 H1      23.5359    25.7495    28.6034 H     161 HOH   0.0000 
483 H2      22.2856    26.3965    29.2504 H     161 HOH   0.0000 
484 O       14.3985    23.7676    55.7024 O.3   162 HOH   0.0000 
485 H1      15.3585    23.7676    55.7024 H     162 HOH   0.0000 
486 H2      14.1082    24.4146    56.3494 H     162 HOH   0.0000 
487 O        4.9465    22.1017    20.7645 O.3   163 HOH   0.0000 
488 H1       5.9065    22.1017    20.7645 H     163 HOH   0.0000 
489 H2       4.6562    22.7487    21.4116 H     163 HOH   0.0000 
490 O      -14.5315    13.9179    48.7839 O.3   164 HOH   0.0000 
491 H1     -13.5715    13.9179    48.7839 H     164 HOH   0.0000 
492 H2     -14.8218    14.5650    49.4310 H     164 HOH   0.0000 
493 O       -0.6511    -3.1970    18.9526 O.3   165 HOH   0.0000 
494 H1       0.3089    -3.1970    18.9526 H     165 HOH   0.0000 
495 H2      -0.9414    -2.5499    19.5996 H     165 HOH   0.0000 
496 O       17.3378    30.4759    28.3114 O.3   166 HOH   0.0000 
497 H1      18.2978    30.4759    28.3114 H     166 HOH   0.0000 
498 H2      17.0475    31.1229    28.9584 H     166 HOH   0.0000 
499 O       -8.3258     0.3772    31.1789 O.3   167 HOH   0.0000 
500 H1      -7.3658     0.3772    31.1789 H     167 HOH   0.0000 
501 H2      -8.6161     1.0243    31.8259 H     167 HOH   0.0000 
502 O       -1.4508    31.4599    47.3507 O.3   168 HOH   0.0000 
503 H1      -0.4908    31.4599    47.3507 H     168 HOH   0.0000 
504 H2      -1.7410    32.1069    47.9977 H     168 HOH   0.0000 
505 O        4.0077     4.1599    13.4463 O.3   169 HOH   0.0000 
506 H1       4.9677     4.1599    13.4463 H     169 HOH   0.0000 
507 H2       3.7175     4.8069    14.0933 H     169 HOH   0.0000 
508 O       14.4409    21.5727    23.4054 O.3   170 HOH   0.0000 
509 H1      15.4009    21.5727    23.4054 H     170 HOH   0.0000 
510 H2      14.1506    22.2198    24.0525 H     170 HOH   0.0000 
511 O       10.7623    12.2052    29.2576 O.3   171 HOH   0.0000 
512 H1      11.7223    12.2052    29.2576 H     171 HOH   0.0000 
513 H2      10.4720    12.8523    29.9046 H     171 HOH   0.0000 
514 O       -1.9813    26.5628    47.9795 O.3   172 HOH   0.0000 
515 H1      -1.0213    26.5628    47.9795 H     172 HOH   0.0000 
516 H2      -2.2716    27.2099    48.6265 H     172 HOH   0.0000 
@<TRIPOS>BOND
  1   1   2  1   
  2   1   3  1   
  3   4   5  1   
  4   4   6  1   
  5   7   8  1   
  6   7   9  1   
  7  10  11  1   
  8  10  12  1   
  9  13  14  1   
 10  13  15  1   
 11  16  17  1   
 12  16  18  1   
 13  19  20  1   
 14  19  21  1   
 15  22  23  1   
 16  22  24  1   
 17  25  26  1   
 18  25  27  1   
 19  28  29  1   
 20  28  30  1   
 21  31  32  1   
 22  31  33  1   
 23  34  35  1   
 24  34  36  1   
 25  37  38  1   
 26  37  39  1   
 27  40  41  1   
 28  40  42  1   
 29  43  44  1   
 30  43  45  1   
 31  46  47  1   
 32  46  48  1   
 33  49  50  1   
 34  49  51  1   
 35  52  53  1   
 36  52  54  1   
 37  55  56  1   
 38  55  57  1   
 39  58  59  1   
 40  58  60  1   
 41  61  62  1   
 42  61  63  1   
 43  64  65  1   
 44  64  66  1   
 45  67  68  1   
 46  67  69  1   
 47  70  71  1   
 48  70  72  1   
 49  73  74  1   
 50  73  75  1   
 51  76  77  1   
 52  76  78  1   
 53  79  80  1   
 54  79  81  1   
 55  82  83  1   
 56  82  84  1   
 57  85  86  1   
 58  85  87  1   
 59  88  89  1   
 60  88  90  1   
 61  91  92  1   
 62  91  93  1   
 63  94  95  1   
 64  94  96  1   
 65  97  98  1   
 66  97  99  1   
 67 100 101  1   
 68 100 102  1   
 69 103 104  1   
 70 103 105  1   
 71 106 107  1   
 72 106 108  1   
 73 109 110  1   
 74 109 111  1   
 75 112 113  1   
 76 112 114  1   
 77 115 116  1   
 78 115 117  1   
 79 118 119  1   
 80 118 120  1   
 81 121 122  1   
 82 121 123  1   
 83 124 125  1   
 84 124 126  1   
 85 127 128  1   
 86 127 129  1   
 87 130 131  1   
 88 130 132  1   
 89 133 134  1   
 90 133 135  1   
 91 136 137  1   
 92 136 138  1   
 93 139 140  1   
 94 139 141  1   
 95 142 143  1   
 96 142 144  1   
 97 145 146  1   
 98 145 147  1   
 99 148 149  1   
100 148 150  1   
101 151 152  1   
102 151 153  1   
103 154 155  1   
104 154 156  1   
105 157 158  1   
106 157 159  1   
107 160 161  1   
108 160 162  1   
109 163 164  1   
110 163 165  1   
111 166 167  1   
112 166 168  1   
113 169 170  1   
114 169 171  1   
115 172 173  1   
116 172 174  1   
117 175 176  1   
118 175 177  1   
119 178 179  1   
120 178 180  1   
121 181 182  1   
122 181 183  1   
123 184 185  1   
124 184 186  1   
125 187 188  1   
126 187 189  1   
127 190 191  1   
128 190 192  1   
129 193 194  1   
130 193 195  1   
131 196 197  1   
132 196 198  1   
133 199 200  1   
134 199 201  1   
135 202 203  1   
136 202 204  1   
137 205 206  1   
138 205 207  1   
139 208 209  1   
140 208 210  1   
141 211 212  1   
142 211 213  1   
143 214 215  1   
144 214 216  1   
145 217 218  1   
146 217 219  1   
147 220 221  1   
148 220 222  1   
149 223 224  1   
150 223 225  1   
151 226 227  1   
152 226 228  1   
153 229 230  1   
154 229 231  1   
155 232 233  1   
156 232 234  1   
157 235 236  1   
158 235 237  1   
159 238 239  1   
160 238 240  1   
161 241 242  1   
162 241 243  1   
163 244 245  1   
164 244 246  1   
165 247 248  1   
166 247 249  1   
167 250 251  1   
168 250 252  1   
169 253 254  1   
170 253 255  1   
171 256 257  1   
172 256 258  1   
173 259 260  1   
174 259 261  1   
175 262 263  1   
176 262 264  1   
177 265 266  1   
178 265 267  1   
179 268 269  1   
180 268 270  1   
181 271 272  1   
182 271 273  1   
183 274 275  1   
184 274 276  1   
185 277 278  1   
186 277 279  1   
187 280 281  1   
188 280 282  1   
189 283 284  1   
190 283 285  1   
191 286 287  1   
192 286 288  1   
193 289 290  1   
194 289 291  1   
195 292 293  1   
196 292 294  1   
197 295 296  1   
198 295 297  1   
199 298 299  1   
200 298 300  1   
201 301 302  1   
202 301 303  1   
203 304 305  1   
204 304 306  1   
205 307 308  1   
206 307 309  1   
207 310 311  1   
208 310 312  1   
209 313 314  1   
210 313 315  1   
211 316 317  1   
212 316 318  1   
213 319 320  1   
214 319 321  1   
215 322 323  1   
216 322 324  1   
217 325 326  1   
218 325 327  1   
219 328 329  1   
220 328 330  1   
221 331 332  1   
222 331 333  1   
223 334 335  1   
224 334 336  1   
225 337 338  1   
226 337 339  1   
227 340 341  1   
228 340 342  1   
229 343 344  1   
230 343 345  1   
231 346 347  1   
232 346 348  1   
233 349 350  1   
234 349 351  1   
235 352 353  1   
236 352 354  1   
237 355 356  1   
238 355 357  1   
239 358 359  1   
240 358 360  1   
241 361 362  1   
242 361 363  1   
243 364 365  1   
244 364 366  1   
245 367 368  1   
246 367 369  1   
247 370 371  1   
248 370 372  1   
249 373 374  1   
250 373 375  1   
251 376 377  1   
252 376 378  1   
253 379 380  1   
254 379 381  1   
255 382 383  1   
256 382 384  1   
257 385 386  1   
258 385 387  1   
259 388 389  1   
260 388 390  1   
261 391 392  1   
262 391 393  1   
263 394 395  1   
264 394 396  1   
265 397 398  1   
266 397 399  1   
267 400 401  1   
268 400 402  1   
269 403 404  1   
270 403 405  1   
271 406 407  1   
272 406 408  1   
273 409 410  1   
274 409 411  1   
275 412 413  1   
276 412 414  1   
277 415 416  1   
278 415 417  1   
279 418 419  1   
280 418 420  1   
281 421 422  1   
282 421 423  1   
283 424 425  1   
284 424 426  1   
285 427 428  1   
286 427 429  1   
287 430 431  1   
288 430 432  1   
289 433 434  1   
290 433 435  1   
291 436 437  1   
292 436 438  1   
293 439 440  1   
294 439 441  1   
295 442 443  1   
296 442 444  1   
297 445 446  1   
298 445 447  1   
299 448 449  1   
300 448 450  1   
301 451 452  1   
302 451 453  1   
303 454 455  1   
304 454 456  1   
305 457 458  1   
306 457 459  1   
307 460 461  1   
308 460 462  1   
309 463 464  1   
310 463 465  1   
311 466 467  1   
312 466 468  1   
313 469 470  1   
314 469 471  1   
315 472 473  1   
316 472 474  1   
317 475 476  1   
318 475 477  1   
319 478 479  1   
320 478 480  1   
321 481 482  1   
322 481 483  1   
323 484 485  1   
324 484 486  1   
325 487 488  1   
326 487 489  1   
327 490 491  1   
328 490 492  1   
329 493 494  1   
330 493 495  1   
331 496 497  1   
332 496 498  1   
333 499 500  1   
334 499 501  1   
335 502 503  1   
336 502 504  1   
337 505 506  1   
338 505 507  1   
339 508 509  1   
340 508 510  1   
341 511 512  1   
342 511 513  1   
343 514 515  1   
344 514 516  1   
@<TRIPOS>SUBSTRUCTURE
  1 HOH   1 GROUP 4 C **** 0
  2 HOH   4 GROUP 4 C **** 0
  3 HOH   7 GROUP 4 C **** 0
  4 HOH  10 GROUP 4 C **** 0
  5 HOH  13 GROUP 4 C **** 0
  6 HOH  16 GROUP 4 C **** 0
  7 HOH  19 GROUP 4 C **** 0
  8 HOH  22 GROUP 4 C **** 0
  9 HOH  25 GROUP 4 C **** 0
 10 HOH  28 GROUP 4 C **** 0
 11 HOH  31 GROUP 4 C **** 0
 12 HOH  34 GROUP 4 C **** 0
 13 HOH  37 GROUP 4 C **** 0
 14 HOH  40 GROUP 4 C **** 0
 15 HOH  43 GROUP 4 C **** 0
 16 HOH  46 GROUP 4 C **** 0
 17 HOH  49 GROUP 4 C **** 0
 18 HOH  52 GROUP 4 C **** 0
 19 HOH  55 GROUP 4 C **** 0
 20 HOH  58 GROUP 4 C **** 0
 21 HOH  61 GROUP 4 C **** 0
 22 HOH  64 GROUP 4 C **** 0
 23 HOH  67 GROUP 4 C **** 0
 24 HOH  70 GROUP 4 C **** 0
 25 HOH  73 GROUP 4 C **** 0
 26 HOH  76 GROUP 4 C **** 0
 27 HOH  79 GROUP 4 C **** 0
 28 HOH  82 GROUP 4 C **** 0
 29 HOH  85 GROUP 4 C **** 0
 30 HOH  88 GROUP 4 C **** 0
 31 HOH  91 GROUP 4 C **** 0
 32 HOH  94 GROUP 4 C **** 0
 33 HOH  97 GROUP 4 C **** 0
 34 HOH 100 GROUP 4 C **** 0
 35 HOH 103 GROUP 4 C **** 0
 36 HOH 106 GROUP 4 C **** 0
 37 HOH 109 GROUP 4 C **** 0
 38 HOH 112 GROUP 4 C **** 0
 39 HOH 115 GROUP 4 C **** 0
 40 HOH 118 GROUP 4 C **** 0
 41 HOH 121 GROUP 4 C **** 0
 42 HOH 124 GROUP 4 C **** 0
 43 HOH 127 GROUP 4 C **** 0
 44 HOH 130 GROUP 4 C **** 0
 45 HOH 133 GROUP 4 C **** 0
 46 HOH 136 GROUP 4 C **** 0
 47 HOH 139 GROUP 4 C **** 0
 48 HOH 142 GROUP 4 C **** 0
 49 HOH 145 GROUP 4 C **** 0
 50 HOH 148 GROUP 4 C **** 0
 51 HOH 151 GROUP 4 C **** 0
 52 HOH 154 GROUP 4 C **** 0
 53 HOH 157 GROUP 4 C **** 0
 54 HOH 160 GROUP 4 C **** 0
 55 HOH 163 GROUP 4 C **** 0
 56 HOH 166 GROUP 4 C **** 0
 57 HOH 169 GROUP 4 C **** 0
 58 HOH 172 GROUP 4 C **** 0
 59 HOH 175 GROUP 4 C **** 0
 60 HOH 178 GROUP 4 C **** 0
 61 HOH 181 GROUP 4 C **** 0
 62 HOH 184 GROUP 4 C **** 0
 63 HOH 187 GROUP 4 C **** 0
 64 HOH 190 GROUP 4 C **** 0
 65 HOH 193 GROUP 4 C **** 0
 66 HOH 196 GROUP 4 C **** 0
 67 HOH 199 GROUP 4 C **** 0
 68 HOH 202 GROUP 4 C **** 0
 69 HOH 205 GROUP 4 C **** 0
 70 HOH 208 GROUP 4 C **** 0
 71 HOH 211 GROUP 4 C **** 0
 72 HOH 214 GROUP 4 C **** 0
 73 HOH 217 GROUP 4 C **** 0
 74 HOH 220 GROUP 4 C **** 0
 75 HOH 223 GROUP 4 C **** 0
 76 HOH 226 GROUP 4 C **** 0
 77 HOH 229 GROUP 4 C **** 0
 78 HOH 232 GROUP 4 C **** 0
 79 HOH 235 GROUP 4 C **** 0
 80 HOH 238 GROUP 4 C **** 0
 81 HOH 241 GROUP 4 C **** 0
 82 HOH 244 GROUP 4 C **** 0
 83 HOH 247 GROUP 4 C **** 0
 84 HOH 250 GROUP 4 C **** 0
 85 HOH 253 GROUP 4 C **** 0
 86 HOH 256 GROUP 4 C **** 0
 87 HOH 259 GROUP 4 C **** 0
 88 HOH 262 GROUP 4 C **** 0
 89 HOH 265 GROUP 4 C **** 0
 90 HOH 268 GROUP 4 C **** 0
 91 HOH 271 GROUP 4 C **** 0
 92 HOH 274 GROUP 4 C **** 0
 93 HOH 277 GROUP 4 C **** 0
 94 HOH 280 GROUP 4 C **** 0
 95 HOH 283 GROUP 4 C **** 0
 96 HOH 286 GROUP 4 C **** 0
 97 HOH 289 GROUP 4 C **** 0
 98 HOH 292 GROUP 4 C **** 0
 99 HOH 295 GROUP 4 C **** 0
100 HOH 298 GROUP 4 C **** 0
101 HOH 301 GROUP 4 C **** 0
102 HOH 304 GROUP 4 C **** 0
103 HOH 307 GROUP 4 C **** 0
104 HOH 310 GROUP 4 C **** 0
105 HOH 313 GROUP 4 C **** 0
106 HOH 316 GROUP 4 C **** 0
107 HOH 319 GROUP 4 C **** 0
108 HOH 322 GROUP 4 C **** 0
109 HOH 325 GROUP 4 C **** 0
110 HOH 328 GROUP 4 C **** 0
111 HOH 331 GROUP 4 C **** 0
112 HOH 334 GROUP 4 C **** 0
113 HOH 337 GROUP 4 C **** 0
114 HOH 340 GROUP 4 C **** 0
115 HOH 343 GROUP 4 C **** 0
116 HOH 346 GROUP 4 C **** 0
117 HOH 349 GROUP 4 C **** 0
118 HOH 352 GROUP 4 C **** 0
119 HOH 355 GROUP 4 C **** 0
120 HOH 358 GROUP 4 C **** 0
121 HOH 361 GROUP 4 C **** 0
122 HOH 364 GROUP 4 C **** 0
123 HOH 367 GROUP 4 C **** 0
124 HOH 370 GROUP 4 C **** 0
125 HOH 373 GROUP 4 C **** 0
126 HOH 376 GROUP 4 C **** 0
127 HOH 379 GROUP 4 C **** 0
128 HOH 382 GROUP 4 C **** 0
129 HOH 385 GROUP 4 C **** 0
130 HOH 388 GROUP 4 C **** 0
131 HOH 391 GROUP 4 C **** 0
132 HOH 394 GROUP 4 C **** 0
133 HOH 397 GROUP 4 C **** 0
134 HOH 400 GROUP 4 C **** 0
135 HOH 403 GROUP 4 C **** 0
136 HOH 406 GROUP 4 C **** 0
137 HOH 409 GROUP 4 C **** 0
138 HOH 412 GROUP 4 C **** 0
139 HOH 415 GROUP 4 C **** 0
140 HOH 418 GROUP 4 C **** 0
141 HOH 421 GROUP 4 C **** 0
142 HOH 424 GROUP 4 C **** 0
143 HOH 427 GROUP 4 C **** 0
144 HOH 430 GROUP 4 C **** 0
145 HOH 433 GROUP 4 C **** 0
146 HOH 436 GROUP 4 C **** 0
147 HOH 439 GROUP 4 C **** 0
148 HOH 442 GROUP 4 C **** 0
149 HOH 445 GROUP 4 C **** 0
150 HOH 448 GROUP 4 C **** 0
151 HOH 451 GROUP 4 C **** 0
152 HOH 454 GROUP 4 C **** 0
153 HOH 457 GROUP 4 C **** 0
154 HOH 460 GROUP 4 C **** 0
155 HOH 463 GROUP 4 C **** 0
156 HOH 466 GROUP 4 C **** 0
157 HOH 469 GROUP 4 C **** 0
158 HOH 472 GROUP 4 C **** 0
159 HOH 475 GROUP 4 C **** 0
160 HOH 478 GROUP 4 C **** 0
161 HOH 481 GROUP 4 C **** 0
162 HOH 484 GROUP 4 C **** 0
163 HOH 487 GROUP 4 C **** 0
164 HOH 490 GROUP 4 C **** 0
165 HOH 493 GROUP 4 C **** 0
166 HOH 496 GROUP 4 C **** 0
167 HOH 499 GROUP 4 C **** 0
168 HOH 502 GROUP 4 C **** 0
169 HOH 505 GROUP 4 C **** 0
170 HOH 508 GROUP 4 C **** 0
171 HOH 511 GROUP 4 C **** 0
172 HOH 514 GROUP 4 C **** 0

# MOE 2012.10 (io_trps.svl 2012.10)
