@<TRIPOS>MOLECULE
2hzi.B
44 47 1 0 0 
SMALL
USER_CHARGES


@<TRIPOS>ATOM
  1 C10      1.8820    20.8921    40.8359 C.2   1 JIN  -0.1784 
  2 H10      1.9207    21.9713    40.8220 H     1 JIN   0.1500 
  3 C12      2.4913    18.7685    39.9894 C.2   1 JIN   0.6156 
  4 C13      1.6196    16.6668    40.9546 C.3   1 JIN   0.0601 
  5 H131     2.2481    16.2202    40.1842 H     1 JIN   0.0800 
  6 H132     0.5816    16.3779    40.7893 H     1 JIN   0.0800 
  7 H133     1.9424    16.3166    41.9350 H     1 JIN   0.0800 
  8 C15      3.7773    21.8790    36.6913 C.ar  1 JIN  -0.1500 
  9 H15      3.3680    22.1013    35.7169 H     1 JIN   0.1500 
 10 C16      5.1056    22.2261    37.0025 C.ar  1 JIN  -0.1500 
 11 H16      5.7352    22.6999    36.2639 H     1 JIN   0.1500 
 12 C19      3.4541    20.9369    38.9195 C.ar  1 JIN   0.0284 
 13 C20      2.9982    21.2458    37.6550 C.ar  1 JIN   0.1770 
 14 C27     -1.2655    16.9804    44.7735 C.ar  1 JIN   0.1000 
 15 C30     -1.5772    14.2544    45.6529 C.ar  1 JIN   0.1900 
 16 C31     -1.0915    14.5314    44.3800 C.ar  1 JIN  -0.1500 
 17 H31     -0.8323    13.7259    43.7088 H     1 JIN   0.1500 
 18 C34     -2.4331    15.0178    47.8470 C.3   1 JIN  -0.0965 
 19 H341    -2.4649    13.9372    47.9867 H     1 JIN   0.0800 
 20 H342    -3.4378    15.4273    47.9515 H     1 JIN   0.0800 
 21 H343    -1.7797    15.4622    48.5978 H     1 JIN   0.0800 
 22 F35     -1.7312    12.9897    46.0374 F     1 JIN  -0.1900 
 23 C29     -1.9053    15.3301    46.4760 C.ar  1 JIN  -0.1435 
 24 C28     -1.7660    16.6535    46.0473 C.ar  1 JIN  -0.1500 
 25 H28     -2.0521    17.4516    46.7162 H     1 JIN   0.1500 
 26 C26     -0.9414    15.8622    43.9759 C.ar  1 JIN  -0.1500 
 27 H26     -0.5508    16.0465    42.9860 H     1 JIN   0.1500 
 28 N08     -1.1780    18.2881    44.4631 N.pl3 1 JIN  -0.6000 
 29 H08     -1.7745    18.8974    45.0044 H     1 JIN   0.4000 
 30 C04     -0.4211    18.9033    43.5468 C.ar  1 JIN   0.7200 
 31 N03     -0.4198    20.2192    43.5899 N.ar  1 JIN  -0.6200 
 32 C02      0.3281    20.9406    42.7267 C.ar  1 JIN   0.1600 
 33 H02      0.3355    22.0197    42.7696 H     1 JIN   0.1500 
 34 N05      0.2948    18.1973    42.6452 N.ar  1 JIN  -0.6200 
 35 C06      1.0291    18.8639    41.7737 C.ar  1 JIN   0.4270 
 36 N11      1.7356    18.1224    40.8948 N.am  1 JIN  -0.4771 
 37 O14      3.1234    18.0428    39.1935 O.2   1 JIN  -0.5700 
 38 C09      2.6304    20.1559    39.9032 C.2   1 JIN  -0.0140 
 39 C01      1.1002    20.2493    41.7665 C.ar  1 JIN   0.0284 
 40 C18      4.7588    21.3089    39.2132 C.ar  1 JIN   0.1770 
 41 C17      5.5992    21.9481    38.2841 C.ar  1 JIN  -0.1500 
 42 H17      6.6088    22.2204    38.5542 H     1 JIN   0.1500 
 43 CL4      5.4358    21.0159    40.8007 Cl    1 JIN  -0.1770 
 44 CL5      1.3717    20.8554    37.1803 Cl    1 JIN  -0.1770 
@<TRIPOS>BOND
  1   1   2  1   
  2   1  38  2   
  3   1  39  1   
  4   3  36  am  
  5   3  37  2   
  6   3  38  1   
  7   4   5  1   
  8   4   6  1   
  9   4   7  1   
 10   4  36  1   
 11   8   9  1   
 12   8  10  ar  
 13   8  13  ar  
 14  10  11  1   
 15  10  41  ar  
 16  12  13  ar  
 17  12  38  1   
 18  12  40  ar  
 19  13  44  1   
 20  14  24  ar  
 21  14  26  ar  
 22  14  28  1   
 23  15  16  ar  
 24  15  22  1   
 25  15  23  ar  
 26  16  17  1   
 27  16  26  ar  
 28  18  19  1   
 29  18  20  1   
 30  18  21  1   
 31  18  23  1   
 32  23  24  ar  
 33  24  25  1   
 34  26  27  1   
 35  28  29  1   
 36  28  30  1   
 37  30  31  ar  
 38  30  34  ar  
 39  31  32  ar  
 40  32  33  1   
 41  32  39  ar  
 42  34  35  ar  
 43  35  36  1   
 44  35  39  ar  
 45  40  41  ar  
 46  40  43  1   
 47  41  42  1   
@<TRIPOS>SUBSTRUCTURE
  1 JIN  35 GROUP 4 B **** 0

# MOE 2012.10 (io_trps.svl 2012.10)
