@<TRIPOS>MOLECULE
2hzi.B
669 446 223 0 0 
SMALL
USER_CHARGES


@<TRIPOS>ATOM
  1 O       -9.3112     7.0669    22.5284 O.3     1 HOH   0.0000 
  2 H1      -8.3512     7.0669    22.5284 H       1 HOH   0.0000 
  3 H2      -9.6015     7.7139    23.1754 H       1 HOH   0.0000 
  4 O       -7.0558     6.1169    21.2651 O.3     2 HOH   0.0000 
  5 H1      -6.0958     6.1169    21.2651 H       2 HOH   0.0000 
  6 H2      -7.3461     6.7639    21.9121 H       2 HOH   0.0000 
  7 O       -3.3421    23.0061    16.7202 O.3     3 HOH   0.0000 
  8 H1      -2.3821    23.0061    16.7202 H       3 HOH   0.0000 
  9 H2      -3.6324    23.6531    17.3673 H       3 HOH   0.0000 
 10 O      -12.5623    27.6110    38.4875 O.3     4 HOH   0.0000 
 11 H1     -11.6023    27.6110    38.4875 H       4 HOH   0.0000 
 12 H2     -12.8526    28.2580    39.1345 H       4 HOH   0.0000 
 13 O       -8.5851    29.5478    40.3388 O.3     5 HOH   0.0000 
 14 H1      -7.6251    29.5478    40.3388 H       5 HOH   0.0000 
 15 H2      -8.8754    30.1949    40.9858 H       5 HOH   0.0000 
 16 O      -17.5482     9.7114    17.5910 O.3     6 HOH   0.0000 
 17 H1     -16.5882     9.7114    17.5910 H       6 HOH   0.0000 
 18 H2     -17.8385    10.3585    18.2381 H       6 HOH   0.0000 
 19 O       -9.5102     6.5023    33.8686 O.3     7 HOH   0.0000 
 20 H1      -8.5502     6.5023    33.8686 H       7 HOH   0.0000 
 21 H2      -9.8005     7.1493    34.5157 H       7 HOH   0.0000 
 22 O      -14.3109     6.0990    22.0814 O.3     8 HOH   0.0000 
 23 H1     -13.3509     6.0990    22.0814 H       8 HOH   0.0000 
 24 H2     -14.6011     6.7460    22.7285 H       8 HOH   0.0000 
 25 O      -15.2010    -1.8650    26.9502 O.3     9 HOH   0.0000 
 26 H1     -14.2410    -1.8650    26.9502 H       9 HOH   0.0000 
 27 H2     -15.4912    -1.2180    27.5973 H       9 HOH   0.0000 
 28 O        6.4768    24.0890    16.5099 O.3    10 HOH   0.0000 
 29 H1       7.4368    24.0890    16.5099 H      10 HOH   0.0000 
 30 H2       6.1865    24.7360    17.1569 H      10 HOH   0.0000 
 31 O      -15.6977     9.9158    12.8668 O.3    11 HOH   0.0000 
 32 H1     -14.7377     9.9158    12.8668 H      11 HOH   0.0000 
 33 H2     -15.9879    10.5629    13.5139 H      11 HOH   0.0000 
 34 O       -1.7847    29.7113    35.6000 O.3    12 HOH   0.0000 
 35 H1      -0.8247    29.7113    35.6000 H      12 HOH   0.0000 
 36 H2      -2.0750    30.3583    36.2471 H      12 HOH   0.0000 
 37 O      -15.9596    29.6675    25.0813 O.3    13 HOH   0.0000 
 38 H1     -14.9996    29.6675    25.0813 H      13 HOH   0.0000 
 39 H2     -16.2499    30.3146    25.7284 H      13 HOH   0.0000 
 40 O      -13.3031    19.8821    46.1670 O.3    14 HOH   0.0000 
 41 H1     -12.3431    19.8821    46.1670 H      14 HOH   0.0000 
 42 H2     -13.5934    20.5291    46.8140 H      14 HOH   0.0000 
 43 O      -14.6353    12.9028    10.8363 O.3    15 HOH   0.0000 
 44 H1     -13.6753    12.9028    10.8363 H      15 HOH   0.0000 
 45 H2     -14.9256    13.5499    11.4834 H      15 HOH   0.0000 
 46 O       -2.6913    15.9737    22.0073 O.3    16 HOH   0.0000 
 47 H1      -1.7313    15.9737    22.0073 H      16 HOH   0.0000 
 48 H2      -2.9816    16.6207    22.6544 H      16 HOH   0.0000 
 49 O       -5.1366     7.2035    34.2069 O.3    17 HOH   0.0000 
 50 H1      -4.1766     7.2035    34.2069 H      17 HOH   0.0000 
 51 H2      -5.4269     7.8505    34.8539 H      17 HOH   0.0000 
 52 O       -6.4888     9.5981    33.9101 O.3    18 HOH   0.0000 
 53 H1      -5.5288     9.5981    33.9101 H      18 HOH   0.0000 
 54 H2      -6.7791    10.2452    34.5572 H      18 HOH   0.0000 
 55 O       -3.1683    26.1173    20.1405 O.3    19 HOH   0.0000 
 56 H1      -2.2083    26.1173    20.1405 H      19 HOH   0.0000 
 57 H2      -3.4586    26.7643    20.7876 H      19 HOH   0.0000 
 58 O        7.8407    24.8096    14.1656 O.3    20 HOH   0.0000 
 59 H1       8.8007    24.8096    14.1656 H      20 HOH   0.0000 
 60 H2       7.5505    25.4566    14.8126 H      20 HOH   0.0000 
 61 O       -9.7358    24.1503    17.6801 O.3    21 HOH   0.0000 
 62 H1      -8.7758    24.1503    17.6801 H      21 HOH   0.0000 
 63 H2     -10.0260    24.7974    18.3271 H      21 HOH   0.0000 
 64 O      -13.5873     6.4645    12.7878 O.3    22 HOH   0.0000 
 65 H1     -12.6273     6.4645    12.7878 H      22 HOH   0.0000 
 66 H2     -13.8776     7.1115    13.4348 H      22 HOH   0.0000 
 67 O       -3.9019    15.5837    25.3719 O.3    23 HOH   0.0000 
 68 H1      -2.9419    15.5837    25.3719 H      23 HOH   0.0000 
 69 H2      -4.1922    16.2307    26.0190 H      23 HOH   0.0000 
 70 O        4.1892    24.6482    15.2525 O.3    24 HOH   0.0000 
 71 H1       5.1492    24.6482    15.2525 H      24 HOH   0.0000 
 72 H2       3.8989    25.2953    15.8995 H      24 HOH   0.0000 
 73 O       -3.4138    11.7484    27.8580 O.3    25 HOH   0.0000 
 74 H1      -2.4538    11.7484    27.8580 H      25 HOH   0.0000 
 75 H2      -3.7041    12.3954    28.5050 H      25 HOH   0.0000 
 76 O      -22.1152    33.6891    30.9695 O.3    26 HOH   0.0000 
 77 H1     -21.1552    33.6891    30.9695 H      26 HOH   0.0000 
 78 H2     -22.4055    34.3362    31.6166 H      26 HOH   0.0000 
 79 O      -20.8961    25.8321    21.6424 O.3    27 HOH   0.0000 
 80 H1     -19.9361    25.8321    21.6424 H      27 HOH   0.0000 
 81 H2     -21.1864    26.4791    22.2894 H      27 HOH   0.0000 
 82 O      -23.6672    16.0428    34.2988 O.3    28 HOH   0.0000 
 83 H1     -22.7072    16.0428    34.2988 H      28 HOH   0.0000 
 84 H2     -23.9574    16.6898    34.9458 H      28 HOH   0.0000 
 85 O       -6.2660     3.0263    32.4263 O.3    29 HOH   0.0000 
 86 H1      -5.3060     3.0263    32.4263 H      29 HOH   0.0000 
 87 H2      -6.5563     3.6733    33.0734 H      29 HOH   0.0000 
 88 O       -7.1575     5.1519    34.1618 O.3    30 HOH   0.0000 
 89 H1      -6.1975     5.1519    34.1618 H      30 HOH   0.0000 
 90 H2      -7.4478     5.7989    34.8089 H      30 HOH   0.0000 
 91 O       -3.6875    25.5937    17.4929 O.3    31 HOH   0.0000 
 92 H1      -2.7275    25.5937    17.4929 H      31 HOH   0.0000 
 93 H2      -3.9777    26.2407    18.1399 H      31 HOH   0.0000 
 94 O      -12.1163    29.9402    35.6900 O.3    32 HOH   0.0000 
 95 H1     -11.1563    29.9402    35.6900 H      32 HOH   0.0000 
 96 H2     -12.4066    30.5873    36.3370 H      32 HOH   0.0000 
 97 O       -3.9597     0.1224    19.1831 O.3    33 HOH   0.0000 
 98 H1      -2.9997     0.1224    19.1831 H      33 HOH   0.0000 
 99 H2      -4.2500     0.7694    19.8301 H      33 HOH   0.0000 
100 O       -4.9263    -1.7257    16.5602 O.3    34 HOH   0.0000 
101 H1      -3.9663    -1.7257    16.5602 H      34 HOH   0.0000 
102 H2      -5.2166    -1.0786    17.2072 H      34 HOH   0.0000 
103 O      -26.2925    17.1388    33.7320 O.3    35 HOH   0.0000 
104 H1     -25.3325    17.1388    33.7320 H      35 HOH   0.0000 
105 H2     -26.5828    17.7859    34.3791 H      35 HOH   0.0000 
106 O       -4.2542    29.3702    38.4419 O.3    36 HOH   0.0000 
107 H1      -3.2942    29.3702    38.4419 H      36 HOH   0.0000 
108 H2      -4.5445    30.0173    39.0890 H      36 HOH   0.0000 
109 O      -24.5432    27.7430    24.3198 O.3    37 HOH   0.0000 
110 H1     -23.5832    27.7430    24.3198 H      37 HOH   0.0000 
111 H2     -24.8335    28.3901    24.9668 H      37 HOH   0.0000 
112 O      -14.7042    26.1209    43.0069 O.3    38 HOH   0.0000 
113 H1     -13.7442    26.1209    43.0069 H      38 HOH   0.0000 
114 H2     -14.9945    26.7679    43.6540 H      38 HOH   0.0000 
115 O       -4.1741    11.9623    43.7662 O.3    39 HOH  -0.8340 
116 H1      -4.6286    11.1601    43.5090 H      39 HOH   0.4170 
117 H2      -3.7420    11.7395    44.5907 H      39 HOH   0.4170 
118 O       -5.2408    33.4841    36.8941 O.3    40 HOH   0.0000 
119 H1      -4.2808    33.4841    36.8941 H      40 HOH   0.0000 
120 H2      -5.5310    34.1311    37.5412 H      40 HOH   0.0000 
121 O      -14.2361    28.2191    17.5532 O.3    41 HOH   0.0000 
122 H1     -13.2761    28.2191    17.5532 H      41 HOH   0.0000 
123 H2     -14.5264    28.8662    18.2003 H      41 HOH   0.0000 
124 O      -18.5042     0.2998    13.9295 O.3    42 HOH   0.0000 
125 H1     -17.5442     0.2998    13.9295 H      42 HOH   0.0000 
126 H2     -18.7945     0.9469    14.5765 H      42 HOH   0.0000 
127 O        4.0333    22.9300    12.9175 O.3    43 HOH   0.0000 
128 H1       4.9933    22.9300    12.9175 H      43 HOH   0.0000 
129 H2       3.7431    23.5770    13.5646 H      43 HOH   0.0000 
130 O      -25.7017    18.2494    45.9395 O.3    44 HOH   0.0000 
131 H1     -24.7417    18.2494    45.9395 H      44 HOH   0.0000 
132 H2     -25.9920    18.8965    46.5866 H      44 HOH   0.0000 
133 O        2.0112    29.2890    35.6866 O.3    45 HOH   0.0000 
134 H1       2.9712    29.2890    35.6866 H      45 HOH   0.0000 
135 H2       1.7209    29.9360    36.3336 H      45 HOH   0.0000 
136 O      -32.5915    26.0085    33.6797 O.3    46 HOH   0.0000 
137 H1     -31.6315    26.0085    33.6797 H      46 HOH   0.0000 
138 H2     -32.8818    26.6556    34.3268 H      46 HOH   0.0000 
139 O        2.8627    19.2497    24.7648 O.3    47 HOH   0.0000 
140 H1       3.8227    19.2497    24.7648 H      47 HOH   0.0000 
141 H2       2.5724    19.8967    25.4119 H      47 HOH   0.0000 
142 O       -3.7936    16.1245    15.5328 O.3    48 HOH   0.0000 
143 H1      -2.8336    16.1245    15.5328 H      48 HOH   0.0000 
144 H2      -4.0839    16.7715    16.1798 H      48 HOH   0.0000 
145 O      -24.1002    13.3523    35.2676 O.3    49 HOH   0.0000 
146 H1     -23.1402    13.3523    35.2676 H      49 HOH   0.0000 
147 H2     -24.3905    13.9993    35.9146 H      49 HOH   0.0000 
148 O        5.4902    11.8921    41.4419 O.3    50 HOH  -0.8340 
149 H1       4.8681    12.0205    42.1580 H      50 HOH   0.4170 
150 H2       6.3325    11.7591    41.8766 H      50 HOH   0.4170 
151 O        3.1165    13.2640    22.6265 O.3    51 HOH   0.0000 
152 H1       4.0765    13.2640    22.6265 H      51 HOH   0.0000 
153 H2       2.8263    13.9111    23.2736 H      51 HOH   0.0000 
154 O       -3.6257     3.8606    27.5359 O.3    52 HOH   0.0000 
155 H1      -2.6657     3.8606    27.5359 H      52 HOH   0.0000 
156 H2      -3.9160     4.5077    28.1830 H      52 HOH   0.0000 
157 O      -10.2364    -6.0664    11.4934 O.3    53 HOH   0.0000 
158 H1      -9.2764    -6.0664    11.4934 H      53 HOH   0.0000 
159 H2     -10.5266    -5.4193    12.1405 H      53 HOH   0.0000 
160 O       -5.4732    22.0279    15.1419 O.3    54 HOH   0.0000 
161 H1      -4.5132    22.0279    15.1419 H      54 HOH   0.0000 
162 H2      -5.7635    22.6750    15.7889 H      54 HOH   0.0000 
163 O      -27.2192    17.8451    39.7130 O.3    55 HOH   0.0000 
164 H1     -26.2592    17.8451    39.7130 H      55 HOH   0.0000 
165 H2     -27.5095    18.4921    40.3601 H      55 HOH   0.0000 
166 O       -5.3419    12.6994    21.8762 O.3    56 HOH   0.0000 
167 H1      -4.3819    12.6994    21.8762 H      56 HOH   0.0000 
168 H2      -5.6322    13.3464    22.5232 H      56 HOH   0.0000 
169 O        2.3642    33.2212    34.9801 O.3    57 HOH   0.0000 
170 H1       3.3242    33.2212    34.9801 H      57 HOH   0.0000 
171 H2       2.0739    33.8683    35.6271 H      57 HOH   0.0000 
172 O      -27.9560    19.1771    44.5029 O.3    58 HOH   0.0000 
173 H1     -26.9960    19.1771    44.5029 H      58 HOH   0.0000 
174 H2     -28.2463    19.8241    45.1499 H      58 HOH   0.0000 
175 O       -2.1104    27.2490    15.8589 O.3    59 HOH   0.0000 
176 H1      -1.1504    27.2490    15.8589 H      59 HOH   0.0000 
177 H2      -2.4007    27.8961    16.5059 H      59 HOH   0.0000 
178 O      -10.4571    30.5192    28.5754 O.3    60 HOH   0.0000 
179 H1      -9.4971    30.5192    28.5754 H      60 HOH   0.0000 
180 H2     -10.7473    31.1662    29.2224 H      60 HOH   0.0000 
181 O       -6.7409    29.1729    42.9812 O.3    61 HOH   0.0000 
182 H1      -5.7809    29.1729    42.9812 H      61 HOH   0.0000 
183 H2      -7.0312    29.8199    43.6283 H      61 HOH   0.0000 
184 O       -0.3024    26.7603    47.3184 O.3    62 HOH   0.0000 
185 H1       0.6576    26.7603    47.3184 H      62 HOH   0.0000 
186 H2      -0.5926    27.4074    47.9655 H      62 HOH   0.0000 
187 O        1.6248    17.7137    29.2506 O.3    63 HOH   0.0000 
188 H1       2.5848    17.7137    29.2506 H      63 HOH   0.0000 
189 H2       1.3345    18.3608    29.8976 H      63 HOH   0.0000 
190 O      -23.4411    19.6448    44.8549 O.3    64 HOH   0.0000 
191 H1     -22.4811    19.6448    44.8549 H      64 HOH   0.0000 
192 H2     -23.7314    20.2918    45.5020 H      64 HOH   0.0000 
193 O      -24.1923     4.7332    23.5121 O.3    65 HOH   0.0000 
194 H1     -23.2323     4.7332    23.5121 H      65 HOH   0.0000 
195 H2     -24.4826     5.3803    24.1591 H      65 HOH   0.0000 
196 O      -26.0070    13.2206    39.7402 O.3    66 HOH   0.0000 
197 H1     -25.0470    13.2206    39.7402 H      66 HOH   0.0000 
198 H2     -26.2973    13.8676    40.3873 H      66 HOH   0.0000 
199 O      -13.0779    12.5290    46.8403 O.3    67 HOH   0.0000 
200 H1     -12.1179    12.5290    46.8403 H      67 HOH   0.0000 
201 H2     -13.3682    13.1760    47.4874 H      67 HOH   0.0000 
202 O      -26.8328    12.6663    35.1726 O.3    68 HOH   0.0000 
203 H1     -25.8728    12.6663    35.1726 H      68 HOH   0.0000 
204 H2     -27.1231    13.3134    35.8197 H      68 HOH   0.0000 
205 O       -6.0873    26.4789    16.7719 O.3    69 HOH   0.0000 
206 H1      -5.1273    26.4789    16.7719 H      69 HOH   0.0000 
207 H2      -6.3776    27.1259    17.4190 H      69 HOH   0.0000 
208 O      -15.1995    17.2163    47.8613 O.3    70 HOH   0.0000 
209 H1     -14.2395    17.2163    47.8613 H      70 HOH   0.0000 
210 H2     -15.4898    17.8633    48.5083 H      70 HOH   0.0000 
211 O       -6.7024     3.5295    36.4785 O.3    71 HOH   0.0000 
212 H1      -5.7424     3.5295    36.4785 H      71 HOH   0.0000 
213 H2      -6.9927     4.1765    37.1255 H      71 HOH   0.0000 
214 O        1.9040    29.4346     9.7080 O.3    72 HOH   0.0000 
215 H1       2.8640    29.4346     9.7080 H      72 HOH   0.0000 
216 H2       1.6137    30.0816    10.3550 H      72 HOH   0.0000 
217 O       -7.4152    10.8455    12.4473 O.3    73 HOH   0.0000 
218 H1      -6.4552    10.8455    12.4473 H      73 HOH   0.0000 
219 H2      -7.7055    11.4925    13.0943 H      73 HOH   0.0000 
220 O      -13.1023    30.2514    28.9739 O.3    74 HOH   0.0000 
221 H1     -12.1423    30.2514    28.9739 H      74 HOH   0.0000 
222 H2     -13.3926    30.8985    29.6210 H      74 HOH   0.0000 
223 O      -21.6305    15.6714    32.6837 O.3    75 HOH   0.0000 
224 H1     -20.6705    15.6714    32.6837 H      75 HOH   0.0000 
225 H2     -21.9208    16.3185    33.3307 H      75 HOH   0.0000 
226 O      -21.9634    14.3216    18.2659 O.3    76 HOH   0.0000 
227 H1     -21.0034    14.3216    18.2659 H      76 HOH   0.0000 
228 H2     -22.2536    14.9686    18.9129 H      76 HOH   0.0000 
229 O        6.7321    22.7806    28.8297 O.3    77 HOH   0.0000 
230 H1       7.6921    22.7806    28.8297 H      77 HOH   0.0000 
231 H2       6.4418    23.4277    29.4768 H      77 HOH   0.0000 
232 O      -26.9916    19.0540    35.4896 O.3    78 HOH   0.0000 
233 H1     -26.0316    19.0540    35.4896 H      78 HOH   0.0000 
234 H2     -27.2819    19.7010    36.1367 H      78 HOH   0.0000 
235 O      -19.3099    -0.8326    26.4661 O.3    79 HOH   0.0000 
236 H1     -18.3499    -0.8326    26.4661 H      79 HOH   0.0000 
237 H2     -19.6002    -0.1856    27.1131 H      79 HOH   0.0000 
238 O      -16.9043    13.8785    48.3983 O.3    80 HOH   0.0000 
239 H1     -15.9443    13.8785    48.3983 H      80 HOH   0.0000 
240 H2     -17.1946    14.5255    49.0454 H      80 HOH   0.0000 
241 O       -7.4286     5.6270    42.2481 O.3    81 HOH   0.0000 
242 H1      -6.4686     5.6270    42.2481 H      81 HOH   0.0000 
243 H2      -7.7189     6.2741    42.8951 H      81 HOH   0.0000 
244 O      -14.4858     2.5383     9.1758 O.3    82 HOH   0.0000 
245 H1     -13.5258     2.5383     9.1758 H      82 HOH   0.0000 
246 H2     -14.7760     3.1854     9.8229 H      82 HOH   0.0000 
247 O      -29.0335    15.9160    27.7046 O.3    83 HOH   0.0000 
248 H1     -28.0735    15.9160    27.7046 H      83 HOH   0.0000 
249 H2     -29.3237    16.5630    28.3517 H      83 HOH   0.0000 
250 O      -15.3425     4.8385    40.1024 O.3    84 HOH   0.0000 
251 H1     -14.3825     4.8385    40.1024 H      84 HOH   0.0000 
252 H2     -15.6328     5.4855    40.7495 H      84 HOH   0.0000 
253 O       10.6234    14.3853    37.3629 O.3    85 HOH   0.0000 
254 H1      11.5834    14.3853    37.3629 H      85 HOH   0.0000 
255 H2      10.3331    15.0323    38.0099 H      85 HOH   0.0000 
256 O      -11.5298    -8.5069    28.2659 O.3    86 HOH   0.0000 
257 H1     -10.5698    -8.5069    28.2659 H      86 HOH   0.0000 
258 H2     -11.8201    -7.8598    28.9130 H      86 HOH   0.0000 
259 O      -13.4550    30.3134    33.0637 O.3    87 HOH   0.0000 
260 H1     -12.4950    30.3134    33.0637 H      87 HOH   0.0000 
261 H2     -13.7452    30.9604    33.7107 H      87 HOH   0.0000 
262 O      -28.1582    15.2660    34.4898 O.3    88 HOH   0.0000 
263 H1     -27.1982    15.2660    34.4898 H      88 HOH   0.0000 
264 H2     -28.4485    15.9130    35.1368 H      88 HOH   0.0000 
265 O       -3.1848    13.7822    23.4527 O.3    89 HOH   0.0000 
266 H1      -2.2248    13.7822    23.4527 H      89 HOH   0.0000 
267 H2      -3.4750    14.4293    24.0998 H      89 HOH   0.0000 
268 O      -20.6205     3.9995    19.9656 O.3    90 HOH   0.0000 
269 H1     -19.6605     3.9995    19.9656 H      90 HOH   0.0000 
270 H2     -20.9108     4.6466    20.6126 H      90 HOH   0.0000 
271 O      -14.3993    14.6066    48.4717 O.3    91 HOH   0.0000 
272 H1     -13.4393    14.6066    48.4717 H      91 HOH   0.0000 
273 H2     -14.6896    15.2537    49.1188 H      91 HOH   0.0000 
274 O        9.0941    32.6753    29.4454 O.3    92 HOH   0.0000 
275 H1      10.0541    32.6753    29.4454 H      92 HOH   0.0000 
276 H2       8.8038    33.3223    30.0925 H      92 HOH   0.0000 
277 O        1.3663    22.0017    10.8388 O.3    93 HOH   0.0000 
278 H1       2.3263    22.0017    10.8388 H      93 HOH   0.0000 
279 H2       1.0760    22.6488    11.4858 H      93 HOH   0.0000 
280 O       -5.1880    19.7801    13.2699 O.3    94 HOH   0.0000 
281 H1      -4.2280    19.7801    13.2699 H      94 HOH   0.0000 
282 H2      -5.4783    20.4271    13.9170 H      94 HOH   0.0000 
283 O      -19.1885    16.2926    32.3720 O.3    95 HOH   0.0000 
284 H1     -18.2285    16.2926    32.3720 H      95 HOH   0.0000 
285 H2     -19.4787    16.9396    33.0191 H      95 HOH   0.0000 
286 O      -23.8124    12.3328    37.9544 O.3    96 HOH   0.0000 
287 H1     -22.8524    12.3328    37.9544 H      96 HOH   0.0000 
288 H2     -24.1026    12.9798    38.6015 H      96 HOH   0.0000 
289 O      -17.7026     1.5477    26.4045 O.3    97 HOH   0.0000 
290 H1     -16.7426     1.5477    26.4045 H      97 HOH   0.0000 
291 H2     -17.9929     2.1947    27.0516 H      97 HOH   0.0000 
292 O      -15.3517     0.4484    25.5083 O.3    98 HOH   0.0000 
293 H1     -14.3917     0.4484    25.5083 H      98 HOH   0.0000 
294 H2     -15.6420     1.0955    26.1553 H      98 HOH   0.0000 
295 O       -3.2131    16.9482    13.0904 O.3    99 HOH   0.0000 
296 H1      -2.2531    16.9482    13.0904 H      99 HOH   0.0000 
297 H2      -3.5033    17.5953    13.7375 H      99 HOH   0.0000 
298 O        1.3264    12.2867    24.4072 O.3   100 HOH   0.0000 
299 H1       2.2864    12.2867    24.4072 H     100 HOH   0.0000 
300 H2       1.0361    12.9338    25.0543 H     100 HOH   0.0000 
301 O        4.4013    18.8367    12.4909 O.3   101 HOH   0.0000 
302 H1       5.3613    18.8367    12.4909 H     101 HOH   0.0000 
303 H2       4.1110    19.4838    13.1379 H     101 HOH   0.0000 
304 O        0.3588    10.7815    32.1510 O.3   102 HOH   0.0000 
305 H1       1.3188    10.7815    32.1510 H     102 HOH   0.0000 
306 H2       0.0686    11.4285    32.7981 H     102 HOH   0.0000 
307 O      -19.7489    23.0967    42.8469 O.3   103 HOH   0.0000 
308 H1     -18.7889    23.0967    42.8469 H     103 HOH   0.0000 
309 H2     -20.0391    23.7437    43.4939 H     103 HOH   0.0000 
310 O      -21.4399     8.2716    46.7693 O.3   104 HOH   0.0000 
311 H1     -20.4799     8.2716    46.7693 H     104 HOH   0.0000 
312 H2     -21.7302     8.9187    47.4163 H     104 HOH   0.0000 
313 O       -9.7871    29.3908    21.9291 O.3   105 HOH   0.0000 
314 H1      -8.8271    29.3908    21.9291 H     105 HOH   0.0000 
315 H2     -10.0774    30.0379    22.5762 H     105 HOH   0.0000 
316 O      -22.7862     9.5673    34.6441 O.3   106 HOH   0.0000 
317 H1     -21.8262     9.5673    34.6441 H     106 HOH   0.0000 
318 H2     -23.0765    10.2144    35.2912 H     106 HOH   0.0000 
319 O      -23.4553    22.1514    43.0267 O.3   107 HOH   0.0000 
320 H1     -22.4953    22.1514    43.0267 H     107 HOH   0.0000 
321 H2     -23.7456    22.7985    43.6737 H     107 HOH   0.0000 
322 O      -11.8146     5.5079     9.4943 O.3   108 HOH   0.0000 
323 H1     -10.8546     5.5079     9.4943 H     108 HOH   0.0000 
324 H2     -12.1048     6.1550    10.1413 H     108 HOH   0.0000 
325 O       -9.0428    -6.9297    22.8115 O.3   109 HOH   0.0000 
326 H1      -8.0828    -6.9297    22.8115 H     109 HOH   0.0000 
327 H2      -9.3330    -6.2827    23.4585 H     109 HOH   0.0000 
328 O      -13.6075     0.5654    33.2812 O.3   110 HOH   0.0000 
329 H1     -12.6475     0.5654    33.2812 H     110 HOH   0.0000 
330 H2     -13.8978     1.2124    33.9283 H     110 HOH   0.0000 
331 O       -1.1679    11.2061    23.6226 O.3   111 HOH   0.0000 
332 H1      -0.2079    11.2061    23.6226 H     111 HOH   0.0000 
333 H2      -1.4582    11.8531    24.2696 H     111 HOH   0.0000 
334 O      -34.8421    25.6350    35.2771 O.3   112 HOH   0.0000 
335 H1     -33.8821    25.6350    35.2771 H     112 HOH   0.0000 
336 H2     -35.1323    26.2821    35.9242 H     112 HOH   0.0000 
337 O       -5.9235    23.7015    46.6245 O.3   113 HOH   0.0000 
338 H1      -4.9635    23.7015    46.6245 H     113 HOH   0.0000 
339 H2      -6.2137    24.3485    47.2716 H     113 HOH   0.0000 
340 O       -2.0952    35.3848    29.6587 O.3   114 HOH   0.0000 
341 H1      -1.1352    35.3848    29.6587 H     114 HOH   0.0000 
342 H2      -2.3855    36.0319    30.3057 H     114 HOH   0.0000 
343 O      -27.4265    15.3892    44.2822 O.3   115 HOH   0.0000 
344 H1     -26.4665    15.3892    44.2822 H     115 HOH   0.0000 
345 H2     -27.7168    16.0362    44.9292 H     115 HOH   0.0000 
346 O       -8.1277    24.9422    15.9352 O.3   116 HOH   0.0000 
347 H1      -7.1677    24.9422    15.9352 H     116 HOH   0.0000 
348 H2      -8.4180    25.5892    16.5822 H     116 HOH   0.0000 
349 O      -27.1801    30.5129    30.8620 O.3   117 HOH   0.0000 
350 H1     -26.2201    30.5129    30.8620 H     117 HOH   0.0000 
351 H2     -27.4704    31.1599    31.5091 H     117 HOH   0.0000 
352 O        3.7490    30.5403    18.9433 O.3   118 HOH   0.0000 
353 H1       4.7090    30.5403    18.9433 H     118 HOH   0.0000 
354 H2       3.4587    31.1873    19.5904 H     118 HOH   0.0000 
355 O      -21.8379    22.9622    41.3024 O.3   119 HOH   0.0000 
356 H1     -20.8779    22.9622    41.3024 H     119 HOH   0.0000 
357 H2     -22.1281    23.6093    41.9494 H     119 HOH   0.0000 
358 O       -8.2562    24.8815    47.2232 O.3   120 HOH   0.0000 
359 H1      -7.2962    24.8815    47.2232 H     120 HOH   0.0000 
360 H2      -8.5464    25.5286    47.8703 H     120 HOH   0.0000 
361 O       -3.6896    -4.6486    26.5244 O.3   121 HOH   0.0000 
362 H1      -2.7296    -4.6486    26.5244 H     121 HOH   0.0000 
363 H2      -3.9799    -4.0016    27.1715 H     121 HOH   0.0000 
364 O      -12.5964    24.1724    14.4835 O.3   122 HOH   0.0000 
365 H1     -11.6364    24.1724    14.4835 H     122 HOH   0.0000 
366 H2     -12.8867    24.8195    15.1305 H     122 HOH   0.0000 
367 O      -22.5371    11.9891    33.7433 O.3   123 HOH   0.0000 
368 H1     -21.5771    11.9891    33.7433 H     123 HOH   0.0000 
369 H2     -22.8273    12.6361    34.3904 H     123 HOH   0.0000 
370 O       -0.8720    24.6587    10.0890 O.3   124 HOH   0.0000 
371 H1       0.0880    24.6587    10.0890 H     124 HOH   0.0000 
372 H2      -1.1623    25.3057    10.7360 H     124 HOH   0.0000 
373 O        5.1955    23.8374    30.9161 O.3   125 HOH   0.0000 
374 H1       6.1555    23.8374    30.9161 H     125 HOH   0.0000 
375 H2       4.9052    24.4845    31.5632 H     125 HOH   0.0000 
376 O      -18.7173    14.2115    31.6877 O.3   126 HOH   0.0000 
377 H1     -17.7573    14.2115    31.6877 H     126 HOH   0.0000 
378 H2     -19.0075    14.8586    32.3348 H     126 HOH   0.0000 
379 O      -28.0652    33.2197    30.7305 O.3   127 HOH   0.0000 
380 H1     -27.1052    33.2197    30.7305 H     127 HOH   0.0000 
381 H2     -28.3555    33.8667    31.3776 H     127 HOH   0.0000 
382 O      -11.4550    26.5810    46.1296 O.3   128 HOH   0.0000 
383 H1     -10.4950    26.5810    46.1296 H     128 HOH   0.0000 
384 H2     -11.7452    27.2280    46.7766 H     128 HOH   0.0000 
385 O        7.8807    29.9383    25.7661 O.3   129 HOH   0.0000 
386 H1       8.8407    29.9383    25.7661 H     129 HOH   0.0000 
387 H2       7.5904    30.5854    26.4132 H     129 HOH   0.0000 
388 O       -7.4796    23.8935    13.8825 O.3   130 HOH   0.0000 
389 H1      -6.5196    23.8935    13.8825 H     130 HOH   0.0000 
390 H2      -7.7699    24.5406    14.5296 H     130 HOH   0.0000 
391 O       -8.4387    30.4356    19.0654 O.3   131 HOH   0.0000 
392 H1      -7.4787    30.4356    19.0654 H     131 HOH   0.0000 
393 H2      -8.7289    31.0826    19.7125 H     131 HOH   0.0000 
394 O      -17.1878     8.1062    43.8159 O.3   132 HOH   0.0000 
395 H1     -16.2278     8.1062    43.8159 H     132 HOH   0.0000 
396 H2     -17.4780     8.7532    44.4630 H     132 HOH   0.0000 
397 O       -2.7680    25.3760    48.5095 O.3   133 HOH   0.0000 
398 H1      -1.8080    25.3760    48.5095 H     133 HOH   0.0000 
399 H2      -3.0583    26.0230    49.1566 H     133 HOH   0.0000 
400 O       12.8903    31.5138    31.8858 O.3   134 HOH   0.0000 
401 H1      13.8503    31.5138    31.8858 H     134 HOH   0.0000 
402 H2      12.6000    32.1608    32.5328 H     134 HOH   0.0000 
403 O      -18.9291     3.3264    27.8999 O.3   135 HOH   0.0000 
404 H1     -17.9691     3.3264    27.8999 H     135 HOH   0.0000 
405 H2     -19.2193     3.9734    28.5470 H     135 HOH   0.0000 
406 O       -7.4396    20.0115    11.9326 O.3   136 HOH   0.0000 
407 H1      -6.4796    20.0115    11.9326 H     136 HOH   0.0000 
408 H2      -7.7299    20.6586    12.5797 H     136 HOH   0.0000 
409 O        6.0266    31.4479    17.0072 O.3   137 HOH   0.0000 
410 H1       6.9866    31.4479    17.0072 H     137 HOH   0.0000 
411 H2       5.7363    32.0950    17.6542 H     137 HOH   0.0000 
412 O      -14.3395     7.0789     9.2714 O.3   138 HOH   0.0000 
413 H1     -13.3795     7.0789     9.2714 H     138 HOH   0.0000 
414 H2     -14.6298     7.7260     9.9184 H     138 HOH   0.0000 
415 O        6.8166     7.0252    18.5957 O.3   139 HOH   0.0000 
416 H1       7.7766     7.0252    18.5957 H     139 HOH   0.0000 
417 H2       6.5263     7.6722    19.2428 H     139 HOH   0.0000 
418 O       -3.5531     6.7481    36.3749 O.3   140 HOH   0.0000 
419 H1      -2.5931     6.7481    36.3749 H     140 HOH   0.0000 
420 H2      -3.8434     7.3952    37.0219 H     140 HOH   0.0000 
421 O        0.8359    11.8637    47.5481 O.3   141 HOH  -0.8340 
422 H1       0.1554    12.4642    47.8526 H     141 HOH   0.4170 
423 H2       0.9192    11.2192    48.2509 H     141 HOH   0.4170 
424 O      -19.9537    14.8478    51.0974 O.3   142 HOH   0.0000 
425 H1     -18.9937    14.8478    51.0974 H     142 HOH   0.0000 
426 H2     -20.2440    15.4948    51.7444 H     142 HOH   0.0000 
427 O      -25.0736    23.5182    25.7881 O.3   143 HOH   0.0000 
428 H1     -24.1136    23.5182    25.7881 H     143 HOH   0.0000 
429 H2     -25.3638    24.1652    26.4351 H     143 HOH   0.0000 
430 O      -11.9292     1.0677    36.1232 O.3   144 HOH   0.0000 
431 H1     -10.9692     1.0677    36.1232 H     144 HOH   0.0000 
432 H2     -12.2195     1.7147    36.7703 H     144 HOH   0.0000 
433 O      -14.5634    11.0391     9.0541 O.3   145 HOH   0.0000 
434 H1     -13.6034    11.0391     9.0541 H     145 HOH   0.0000 
435 H2     -14.8537    11.6861     9.7011 H     145 HOH   0.0000 
436 O       10.2201    27.5133    26.9240 O.3   146 HOH   0.0000 
437 H1      11.1801    27.5133    26.9240 H     146 HOH   0.0000 
438 H2       9.9298    28.1603    27.5711 H     146 HOH   0.0000 
439 O      -24.0524     9.7707    36.9545 O.3   147 HOH   0.0000 
440 H1     -23.0924     9.7707    36.9545 H     147 HOH   0.0000 
441 H2     -24.3426    10.4177    37.6016 H     147 HOH   0.0000 
442 O        0.4423    15.3424    50.2457 O.3   148 HOH  -0.8340 
443 H1       0.9799    16.1201    50.3955 H     148 HOH   0.4170 
444 H2      -0.2883    15.4343    50.8573 H     148 HOH   0.4170 
445 O        0.7711    11.7045    34.9198 O.3   149 HOH   0.0000 
446 H1       1.7311    11.7045    34.9198 H     149 HOH   0.0000 
447 H2       0.4808    12.3515    35.5668 H     149 HOH   0.0000 
448 O       -3.1134    32.3944    38.2296 O.3   150 HOH   0.0000 
449 H1      -2.1534    32.3944    38.2296 H     150 HOH   0.0000 
450 H2      -3.4036    33.0415    38.8767 H     150 HOH   0.0000 
451 O        8.2124    20.5695    28.6176 O.3   151 HOH   0.0000 
452 H1       9.1724    20.5695    28.6176 H     151 HOH   0.0000 
453 H2       7.9221    21.2165    29.2646 H     151 HOH   0.0000 
454 O        7.6513    14.3783    22.1840 O.3   152 HOH   0.0000 
455 H1       8.6113    14.3783    22.1840 H     152 HOH   0.0000 
456 H2       7.3610    15.0254    22.8311 H     152 HOH   0.0000 
457 O       -7.6547    13.0525    44.6574 O.3   153 HOH   0.0000 
458 H1      -6.6947    13.0525    44.6574 H     153 HOH   0.0000 
459 H2      -7.9450    13.6996    45.3044 H     153 HOH   0.0000 
460 O       -8.8026    26.9803    46.6676 O.3   154 HOH   0.0000 
461 H1      -7.8426    26.9803    46.6676 H     154 HOH   0.0000 
462 H2      -9.0929    27.6273    47.3146 H     154 HOH   0.0000 
463 O        8.2910    27.6442    24.5178 O.3   155 HOH   0.0000 
464 H1       9.2510    27.6442    24.5178 H     155 HOH   0.0000 
465 H2       8.0007    28.2912    25.1648 H     155 HOH   0.0000 
466 O      -28.6973    18.4659    37.4253 O.3   156 HOH   0.0000 
467 H1     -27.7373    18.4659    37.4253 H     156 HOH   0.0000 
468 H2     -28.9876    19.1129    38.0724 H     156 HOH   0.0000 
469 O       -4.3580     2.1570    29.4110 O.3   157 HOH   0.0000 
470 H1      -3.3980     2.1570    29.4110 H     157 HOH   0.0000 
471 H2      -4.6483     2.8041    30.0581 H     157 HOH   0.0000 
472 O       -9.0354    22.2197    12.3094 O.3   158 HOH   0.0000 
473 H1      -8.0754    22.2197    12.3094 H     158 HOH   0.0000 
474 H2      -9.3256    22.8668    12.9565 H     158 HOH   0.0000 
475 O      -18.1688    -1.4316    24.2848 O.3   159 HOH   0.0000 
476 H1     -17.2088    -1.4316    24.2848 H     159 HOH   0.0000 
477 H2     -18.4590    -0.7846    24.9319 H     159 HOH   0.0000 
478 O        2.4615    33.8059    40.8161 O.3   160 HOH   0.0000 
479 H1       3.4215    33.8059    40.8161 H     160 HOH   0.0000 
480 H2       2.1712    34.4529    41.4632 H     160 HOH   0.0000 
481 O      -30.0893    12.9680    28.6683 O.3   161 HOH   0.0000 
482 H1     -29.1293    12.9680    28.6683 H     161 HOH   0.0000 
483 H2     -30.3796    13.6150    29.3154 H     161 HOH   0.0000 
484 O       -0.7698     3.1691    26.8482 O.3   162 HOH   0.0000 
485 H1       0.1902     3.1691    26.8482 H     162 HOH   0.0000 
486 H2      -1.0601     3.8162    27.4953 H     162 HOH   0.0000 
487 O       -9.5460    -3.9583     7.3402 O.3   163 HOH   0.0000 
488 H1      -8.5860    -3.9583     7.3402 H     163 HOH   0.0000 
489 H2      -9.8363    -3.3112     7.9873 H     163 HOH   0.0000 
490 O       -2.5829    24.7172    51.1987 O.3   164 HOH   0.0000 
491 H1      -1.6229    24.7172    51.1987 H     164 HOH   0.0000 
492 H2      -2.8731    25.3643    51.8457 H     164 HOH   0.0000 
493 O       17.8947    23.8885    23.3901 O.3   165 HOH   0.0000 
494 H1      18.8547    23.8885    23.3901 H     165 HOH   0.0000 
495 H2      17.6044    24.5356    24.0371 H     165 HOH   0.0000 
496 O        4.5565    31.5559    13.2529 O.3   166 HOH   0.0000 
497 H1       5.5165    31.5559    13.2529 H     166 HOH   0.0000 
498 H2       4.2662    32.2029    13.8999 H     166 HOH   0.0000 
499 O        9.5261    16.5876    18.7595 O.3   167 HOH   0.0000 
500 H1      10.4861    16.5876    18.7595 H     167 HOH   0.0000 
501 H2       9.2358    17.2346    19.4066 H     167 HOH   0.0000 
502 O        6.3355    36.0540    33.5551 O.3   168 HOH   0.0000 
503 H1       7.2955    36.0540    33.5551 H     168 HOH   0.0000 
504 H2       6.0452    36.7011    34.2021 H     168 HOH   0.0000 
505 O       12.8436    28.4738    26.4650 O.3   169 HOH   0.0000 
506 H1      13.8036    28.4738    26.4650 H     169 HOH   0.0000 
507 H2      12.5534    29.1208    27.1120 H     169 HOH   0.0000 
508 O      -23.2798    26.0889    22.7044 O.3   170 HOH   0.0000 
509 H1     -22.3198    26.0889    22.7044 H     170 HOH   0.0000 
510 H2     -23.5701    26.7359    23.3514 H     170 HOH   0.0000 
511 O       19.4296    24.9475    27.9542 O.3   171 HOH   0.0000 
512 H1      20.3896    24.9475    27.9542 H     171 HOH   0.0000 
513 H2      19.1393    25.5946    28.6012 H     171 HOH   0.0000 
514 O      -21.3329     3.1571    32.4347 O.3   172 HOH   0.0000 
515 H1     -20.3729     3.1571    32.4347 H     172 HOH   0.0000 
516 H2     -21.6232     3.8042    33.0817 H     172 HOH   0.0000 
517 O       -6.6568    11.8621     9.8450 O.3   173 HOH   0.0000 
518 H1      -5.6968    11.8621     9.8450 H     173 HOH   0.0000 
519 H2      -6.9471    12.5092    10.4921 H     173 HOH   0.0000 
520 O       -2.8525    -7.3649    26.8494 O.3   174 HOH   0.0000 
521 H1      -1.8925    -7.3649    26.8494 H     174 HOH   0.0000 
522 H2      -3.1427    -6.7178    27.4965 H     174 HOH   0.0000 
523 O      -10.4971    12.4402    47.6948 O.3   175 HOH   0.0000 
524 H1      -9.5371    12.4402    47.6948 H     175 HOH   0.0000 
525 H2     -10.7874    13.0872    48.3418 H     175 HOH   0.0000 
526 O        4.7134    15.0028    10.8244 O.3   176 HOH   0.0000 
527 H1       5.6734    15.0028    10.8244 H     176 HOH   0.0000 
528 H2       4.4231    15.6499    11.4715 H     176 HOH   0.0000 
529 O      -17.5648    -2.2667    28.5702 O.3   177 HOH   0.0000 
530 H1     -16.6048    -2.2667    28.5702 H     177 HOH   0.0000 
531 H2     -17.8550    -1.6196    29.2172 H     177 HOH   0.0000 
532 O      -28.6269    19.4906    41.3672 O.3   178 HOH   0.0000 
533 H1     -27.6669    19.4906    41.3672 H     178 HOH   0.0000 
534 H2     -28.9172    20.1376    42.0142 H     178 HOH   0.0000 
535 O       -8.5639     5.9867    44.6272 O.3   179 HOH   0.0000 
536 H1      -7.6039     5.9867    44.6272 H     179 HOH   0.0000 
537 H2      -8.8542     6.6337    45.2743 H     179 HOH   0.0000 
538 O       16.3251    25.0738    27.4384 O.3   180 HOH   0.0000 
539 H1      17.2851    25.0738    27.4384 H     180 HOH   0.0000 
540 H2      16.0348    25.7208    28.0855 H     180 HOH   0.0000 
541 O        3.4240    15.8119    29.6715 O.3   181 HOH   0.0000 
542 H1       4.3840    15.8119    29.6715 H     181 HOH   0.0000 
543 H2       3.1337    16.4589    30.3186 H     181 HOH   0.0000 
544 O      -30.1457    20.5625    37.9136 O.3   182 HOH   0.0000 
545 H1     -29.1857    20.5625    37.9136 H     182 HOH   0.0000 
546 H2     -30.4359    21.2095    38.5607 H     182 HOH   0.0000 
547 O       -1.7294     1.1917    18.5474 O.3   183 HOH   0.0000 
548 H1      -0.7694     1.1917    18.5474 H     183 HOH   0.0000 
549 H2      -2.0197     1.8387    19.1944 H     183 HOH   0.0000 
550 O      -20.0478     9.7710    15.9149 O.3   184 HOH   0.0000 
551 H1     -19.0878     9.7710    15.9149 H     184 HOH   0.0000 
552 H2     -20.3380    10.4181    16.5620 H     184 HOH   0.0000 
553 O      -15.3773    24.3054    14.7261 O.3   185 HOH   0.0000 
554 H1     -14.4173    24.3054    14.7261 H     185 HOH   0.0000 
555 H2     -15.6676    24.9524    15.3732 H     185 HOH   0.0000 
556 O       -3.2551     8.2015    38.6857 O.3   186 HOH   0.0000 
557 H1      -2.2951     8.2015    38.6857 H     186 HOH   0.0000 
558 H2      -3.5453     8.8486    39.3327 H     186 HOH   0.0000 
559 O        9.7539    16.1876    21.0455 O.3   187 HOH   0.0000 
560 H1      10.7139    16.1876    21.0455 H     187 HOH   0.0000 
561 H2       9.4636    16.8347    21.6925 H     187 HOH   0.0000 
562 O        2.5328    30.9921    11.9369 O.3   188 HOH   0.0000 
563 H1       3.4928    30.9921    11.9369 H     188 HOH   0.0000 
564 H2       2.2425    31.6392    12.5840 H     188 HOH   0.0000 
565 O      -10.4912    32.1599    30.0811 O.3   189 HOH   0.0000 
566 H1      -9.5312    32.1599    30.0811 H     189 HOH   0.0000 
567 H2     -10.7815    32.8069    30.7282 H     189 HOH   0.0000 
568 O       -4.0209    26.5193    45.2860 O.3   190 HOH   0.0000 
569 H1      -3.0609    26.5193    45.2860 H     190 HOH   0.0000 
570 H2      -4.3112    27.1663    45.9330 H     190 HOH   0.0000 
571 O       -5.8781    28.9050    18.0215 O.3   191 HOH   0.0000 
572 H1      -4.9181    28.9050    18.0215 H     191 HOH   0.0000 
573 H2      -6.1684    29.5520    18.6685 H     191 HOH   0.0000 
574 O       -4.3815    31.2969    40.2794 O.3   192 HOH   0.0000 
575 H1      -3.4215    31.2969    40.2794 H     192 HOH   0.0000 
576 H2      -4.6717    31.9440    40.9265 H     192 HOH   0.0000 
577 O      -20.6266     5.8803    45.3090 O.3   193 HOH   0.0000 
578 H1     -19.6666     5.8803    45.3090 H     193 HOH   0.0000 
579 H2     -20.9168     6.5273    45.9561 H     193 HOH   0.0000 
580 O      -20.4693    27.9558    20.3019 O.3   194 HOH   0.0000 
581 H1     -19.5093    27.9558    20.3019 H     194 HOH   0.0000 
582 H2     -20.7596    28.6028    20.9489 H     194 HOH   0.0000 
583 O       16.7601    14.2933    39.4605 O.3   195 HOH   0.0000 
584 H1      17.7201    14.2933    39.4605 H     195 HOH   0.0000 
585 H2      16.4699    14.9403    40.1075 H     195 HOH   0.0000 
586 O       -6.2959    34.1625    31.8007 O.3   196 HOH   0.0000 
587 H1      -5.3359    34.1625    31.8007 H     196 HOH   0.0000 
588 H2      -6.5862    34.8095    32.4478 H     196 HOH   0.0000 
589 O       10.4634    21.1488    28.3184 O.3   197 HOH   0.0000 
590 H1      11.4234    21.1488    28.3184 H     197 HOH   0.0000 
591 H2      10.1731    21.7958    28.9654 H     197 HOH   0.0000 
592 O      -27.6651    23.2902    26.7508 O.3   198 HOH   0.0000 
593 H1     -26.7051    23.2902    26.7508 H     198 HOH   0.0000 
594 H2     -27.9554    23.9373    27.3978 H     198 HOH   0.0000 
595 O       -5.1733    12.1080    46.4335 O.3   199 HOH  -0.8340 
596 H1      -5.9431    12.5906    46.1323 H     199 HOH   0.4170 
597 H2      -5.3281    11.9679    47.3676 H     199 HOH   0.4170 
598 O      -25.4185    11.8293    41.9870 O.3   200 HOH   0.0000 
599 H1     -24.4585    11.8293    41.9870 H     200 HOH   0.0000 
600 H2     -25.7088    12.4763    42.6341 H     200 HOH   0.0000 
601 O      -17.2575     6.5000    45.9069 O.3   201 HOH   0.0000 
602 H1     -16.2975     6.5000    45.9069 H     201 HOH   0.0000 
603 H2     -17.5478     7.1471    46.5540 H     201 HOH   0.0000 
604 O       -2.1731     0.5868    30.1091 O.3   202 HOH   0.0000 
605 H1      -1.2131     0.5868    30.1091 H     202 HOH   0.0000 
606 H2      -2.4633     1.2338    30.7561 H     202 HOH   0.0000 
607 O      -10.8528    32.9913    32.6427 O.3   203 HOH   0.0000 
608 H1      -9.8928    32.9913    32.6427 H     203 HOH   0.0000 
609 H2     -11.1431    33.6384    33.2898 H     203 HOH   0.0000 
610 O       18.0441    19.3618    40.0359 O.3   204 HOH   0.0000 
611 H1      19.0041    19.3618    40.0359 H     204 HOH   0.0000 
612 H2      17.7538    20.0088    40.6829 H     204 HOH   0.0000 
613 O      -23.1626     4.0188    20.7736 O.3   205 HOH   0.0000 
614 H1     -22.2026     4.0188    20.7736 H     205 HOH   0.0000 
615 H2     -23.4529     4.6659    21.4207 H     205 HOH   0.0000 
616 O      -15.1272    21.4213    13.7395 O.3   206 HOH   0.0000 
617 H1     -14.1672    21.4213    13.7395 H     206 HOH   0.0000 
618 H2     -15.4175    22.0683    14.3865 H     206 HOH   0.0000 
619 O        0.7613    24.6653     8.1623 O.3   207 HOH   0.0000 
620 H1       1.7213    24.6653     8.1623 H     207 HOH   0.0000 
621 H2       0.4710    25.3124     8.8094 H     207 HOH   0.0000 
622 O      -11.9802    23.0394    12.2303 O.3   208 HOH   0.0000 
623 H1     -11.0202    23.0394    12.2303 H     208 HOH   0.0000 
624 H2     -12.2704    23.6864    12.8773 H     208 HOH   0.0000 
625 O       -2.6965    12.0268    25.3119 O.3   209 HOH   0.0000 
626 H1      -1.7365    12.0268    25.3119 H     209 HOH   0.0000 
627 H2      -2.9867    12.6738    25.9589 H     209 HOH   0.0000 
628 O      -17.8735    30.9286    26.8503 O.3   210 HOH   0.0000 
629 H1     -16.9135    30.9286    26.8503 H     210 HOH   0.0000 
630 H2     -18.1637    31.5756    27.4973 H     210 HOH   0.0000 
631 O        7.3138    24.5729    24.1013 O.3   211 HOH   0.0000 
632 H1       8.2738    24.5729    24.1013 H     211 HOH   0.0000 
633 H2       7.0235    25.2199    24.7484 H     211 HOH   0.0000 
634 O       -8.9762    -2.9408    30.5094 O.3   212 HOH   0.0000 
635 H1      -8.0162    -2.9408    30.5094 H     212 HOH   0.0000 
636 H2      -9.2665    -2.2938    31.1565 H     212 HOH   0.0000 
637 O      -20.7541     4.7206    34.4778 O.3   213 HOH   0.0000 
638 H1     -19.7941     4.7206    34.4778 H     213 HOH   0.0000 
639 H2     -21.0444     5.3676    35.1248 H     213 HOH   0.0000 
640 O       -5.3522    29.3638    45.7606 O.3   214 HOH   0.0000 
641 H1      -4.3922    29.3638    45.7606 H     214 HOH   0.0000 
642 H2      -5.6425    30.0108    46.4076 H     214 HOH   0.0000 
643 O       -4.1485    30.6715    17.0074 O.3   215 HOH   0.0000 
644 H1      -3.1885    30.6715    17.0074 H     215 HOH   0.0000 
645 H2      -4.4388    31.3186    17.6544 H     215 HOH   0.0000 
646 O       17.8220    15.2908    28.8641 O.3   216 HOH   0.0000 
647 H1      18.7820    15.2908    28.8641 H     216 HOH   0.0000 
648 H2      17.5318    15.9378    29.5112 H     216 HOH   0.0000 
649 O      -19.0146    -4.5089    26.9958 O.3   217 HOH   0.0000 
650 H1     -18.0546    -4.5089    26.9958 H     217 HOH   0.0000 
651 H2     -19.3049    -3.8618    27.6428 H     217 HOH   0.0000 
652 O        1.7074    28.9982    15.1036 O.3   218 HOH   0.0000 
653 H1       2.6674    28.9982    15.1036 H     218 HOH   0.0000 
654 H2       1.4171    29.6453    15.7507 H     218 HOH   0.0000 
655 O       -9.0990    -7.9007    26.0313 O.3   219 HOH   0.0000 
656 H1      -8.1390    -7.9007    26.0313 H     219 HOH   0.0000 
657 H2      -9.3893    -7.2536    26.6784 H     219 HOH   0.0000 
658 O      -21.1865    13.3762    32.2266 O.3   220 HOH   0.0000 
659 H1     -20.2265    13.3762    32.2266 H     220 HOH   0.0000 
660 H2     -21.4768    14.0232    32.8736 H     220 HOH   0.0000 
661 O      -13.1614    -1.0797     5.3943 O.3   221 HOH   0.0000 
662 H1     -12.2014    -1.0797     5.3943 H     221 HOH   0.0000 
663 H2     -13.4517    -0.4326     6.0414 H     221 HOH   0.0000 
664 O       -9.6025    32.0186    26.2907 O.3   222 HOH   0.0000 
665 H1      -8.6425    32.0186    26.2907 H     222 HOH   0.0000 
666 H2      -9.8928    32.6656    26.9377 H     222 HOH   0.0000 
667 O      -10.8645     0.2557     7.0213 O.3   223 HOH   0.0000 
668 H1      -9.9045     0.2557     7.0213 H     223 HOH   0.0000 
669 H2     -11.1547     0.9027     7.6683 H     223 HOH   0.0000 
@<TRIPOS>BOND
  1   1   2  1   
  2   1   3  1   
  3   4   5  1   
  4   4   6  1   
  5   7   8  1   
  6   7   9  1   
  7  10  11  1   
  8  10  12  1   
  9  13  14  1   
 10  13  15  1   
 11  16  17  1   
 12  16  18  1   
 13  19  20  1   
 14  19  21  1   
 15  22  23  1   
 16  22  24  1   
 17  25  26  1   
 18  25  27  1   
 19  28  29  1   
 20  28  30  1   
 21  31  32  1   
 22  31  33  1   
 23  34  35  1   
 24  34  36  1   
 25  37  38  1   
 26  37  39  1   
 27  40  41  1   
 28  40  42  1   
 29  43  44  1   
 30  43  45  1   
 31  46  47  1   
 32  46  48  1   
 33  49  50  1   
 34  49  51  1   
 35  52  53  1   
 36  52  54  1   
 37  55  56  1   
 38  55  57  1   
 39  58  59  1   
 40  58  60  1   
 41  61  62  1   
 42  61  63  1   
 43  64  65  1   
 44  64  66  1   
 45  67  68  1   
 46  67  69  1   
 47  70  71  1   
 48  70  72  1   
 49  73  74  1   
 50  73  75  1   
 51  76  77  1   
 52  76  78  1   
 53  79  80  1   
 54  79  81  1   
 55  82  83  1   
 56  82  84  1   
 57  85  86  1   
 58  85  87  1   
 59  88  89  1   
 60  88  90  1   
 61  91  92  1   
 62  91  93  1   
 63  94  95  1   
 64  94  96  1   
 65  97  98  1   
 66  97  99  1   
 67 100 101  1   
 68 100 102  1   
 69 103 104  1   
 70 103 105  1   
 71 106 107  1   
 72 106 108  1   
 73 109 110  1   
 74 109 111  1   
 75 112 113  1   
 76 112 114  1   
 77 115 116  1   
 78 115 117  1   
 79 118 119  1   
 80 118 120  1   
 81 121 122  1   
 82 121 123  1   
 83 124 125  1   
 84 124 126  1   
 85 127 128  1   
 86 127 129  1   
 87 130 131  1   
 88 130 132  1   
 89 133 134  1   
 90 133 135  1   
 91 136 137  1   
 92 136 138  1   
 93 139 140  1   
 94 139 141  1   
 95 142 143  1   
 96 142 144  1   
 97 145 146  1   
 98 145 147  1   
 99 148 149  1   
100 148 150  1   
101 151 152  1   
102 151 153  1   
103 154 155  1   
104 154 156  1   
105 157 158  1   
106 157 159  1   
107 160 161  1   
108 160 162  1   
109 163 164  1   
110 163 165  1   
111 166 167  1   
112 166 168  1   
113 169 170  1   
114 169 171  1   
115 172 173  1   
116 172 174  1   
117 175 176  1   
118 175 177  1   
119 178 179  1   
120 178 180  1   
121 181 182  1   
122 181 183  1   
123 184 185  1   
124 184 186  1   
125 187 188  1   
126 187 189  1   
127 190 191  1   
128 190 192  1   
129 193 194  1   
130 193 195  1   
131 196 197  1   
132 196 198  1   
133 199 200  1   
134 199 201  1   
135 202 203  1   
136 202 204  1   
137 205 206  1   
138 205 207  1   
139 208 209  1   
140 208 210  1   
141 211 212  1   
142 211 213  1   
143 214 215  1   
144 214 216  1   
145 217 218  1   
146 217 219  1   
147 220 221  1   
148 220 222  1   
149 223 224  1   
150 223 225  1   
151 226 227  1   
152 226 228  1   
153 229 230  1   
154 229 231  1   
155 232 233  1   
156 232 234  1   
157 235 236  1   
158 235 237  1   
159 238 239  1   
160 238 240  1   
161 241 242  1   
162 241 243  1   
163 244 245  1   
164 244 246  1   
165 247 248  1   
166 247 249  1   
167 250 251  1   
168 250 252  1   
169 253 254  1   
170 253 255  1   
171 256 257  1   
172 256 258  1   
173 259 260  1   
174 259 261  1   
175 262 263  1   
176 262 264  1   
177 265 266  1   
178 265 267  1   
179 268 269  1   
180 268 270  1   
181 271 272  1   
182 271 273  1   
183 274 275  1   
184 274 276  1   
185 277 278  1   
186 277 279  1   
187 280 281  1   
188 280 282  1   
189 283 284  1   
190 283 285  1   
191 286 287  1   
192 286 288  1   
193 289 290  1   
194 289 291  1   
195 292 293  1   
196 292 294  1   
197 295 296  1   
198 295 297  1   
199 298 299  1   
200 298 300  1   
201 301 302  1   
202 301 303  1   
203 304 305  1   
204 304 306  1   
205 307 308  1   
206 307 309  1   
207 310 311  1   
208 310 312  1   
209 313 314  1   
210 313 315  1   
211 316 317  1   
212 316 318  1   
213 319 320  1   
214 319 321  1   
215 322 323  1   
216 322 324  1   
217 325 326  1   
218 325 327  1   
219 328 329  1   
220 328 330  1   
221 331 332  1   
222 331 333  1   
223 334 335  1   
224 334 336  1   
225 337 338  1   
226 337 339  1   
227 340 341  1   
228 340 342  1   
229 343 344  1   
230 343 345  1   
231 346 347  1   
232 346 348  1   
233 349 350  1   
234 349 351  1   
235 352 353  1   
236 352 354  1   
237 355 356  1   
238 355 357  1   
239 358 359  1   
240 358 360  1   
241 361 362  1   
242 361 363  1   
243 364 365  1   
244 364 366  1   
245 367 368  1   
246 367 369  1   
247 370 371  1   
248 370 372  1   
249 373 374  1   
250 373 375  1   
251 376 377  1   
252 376 378  1   
253 379 380  1   
254 379 381  1   
255 382 383  1   
256 382 384  1   
257 385 386  1   
258 385 387  1   
259 388 389  1   
260 388 390  1   
261 391 392  1   
262 391 393  1   
263 394 395  1   
264 394 396  1   
265 397 398  1   
266 397 399  1   
267 400 401  1   
268 400 402  1   
269 403 404  1   
270 403 405  1   
271 406 407  1   
272 406 408  1   
273 409 410  1   
274 409 411  1   
275 412 413  1   
276 412 414  1   
277 415 416  1   
278 415 417  1   
279 418 419  1   
280 418 420  1   
281 421 422  1   
282 421 423  1   
283 424 425  1   
284 424 426  1   
285 427 428  1   
286 427 429  1   
287 430 431  1   
288 430 432  1   
289 433 434  1   
290 433 435  1   
291 436 437  1   
292 436 438  1   
293 439 440  1   
294 439 441  1   
295 442 443  1   
296 442 444  1   
297 445 446  1   
298 445 447  1   
299 448 449  1   
300 448 450  1   
301 451 452  1   
302 451 453  1   
303 454 455  1   
304 454 456  1   
305 457 458  1   
306 457 459  1   
307 460 461  1   
308 460 462  1   
309 463 464  1   
310 463 465  1   
311 466 467  1   
312 466 468  1   
313 469 470  1   
314 469 471  1   
315 472 473  1   
316 472 474  1   
317 475 476  1   
318 475 477  1   
319 478 479  1   
320 478 480  1   
321 481 482  1   
322 481 483  1   
323 484 485  1   
324 484 486  1   
325 487 488  1   
326 487 489  1   
327 490 491  1   
328 490 492  1   
329 493 494  1   
330 493 495  1   
331 496 497  1   
332 496 498  1   
333 499 500  1   
334 499 501  1   
335 502 503  1   
336 502 504  1   
337 505 506  1   
338 505 507  1   
339 508 509  1   
340 508 510  1   
341 511 512  1   
342 511 513  1   
343 514 515  1   
344 514 516  1   
345 517 518  1   
346 517 519  1   
347 520 521  1   
348 520 522  1   
349 523 524  1   
350 523 525  1   
351 526 527  1   
352 526 528  1   
353 529 530  1   
354 529 531  1   
355 532 533  1   
356 532 534  1   
357 535 536  1   
358 535 537  1   
359 538 539  1   
360 538 540  1   
361 541 542  1   
362 541 543  1   
363 544 545  1   
364 544 546  1   
365 547 548  1   
366 547 549  1   
367 550 551  1   
368 550 552  1   
369 553 554  1   
370 553 555  1   
371 556 557  1   
372 556 558  1   
373 559 560  1   
374 559 561  1   
375 562 563  1   
376 562 564  1   
377 565 566  1   
378 565 567  1   
379 568 569  1   
380 568 570  1   
381 571 572  1   
382 571 573  1   
383 574 575  1   
384 574 576  1   
385 577 578  1   
386 577 579  1   
387 580 581  1   
388 580 582  1   
389 583 584  1   
390 583 585  1   
391 586 587  1   
392 586 588  1   
393 589 590  1   
394 589 591  1   
395 592 593  1   
396 592 594  1   
397 595 596  1   
398 595 597  1   
399 598 599  1   
400 598 600  1   
401 601 602  1   
402 601 603  1   
403 604 605  1   
404 604 606  1   
405 607 608  1   
406 607 609  1   
407 610 611  1   
408 610 612  1   
409 613 614  1   
410 613 615  1   
411 616 617  1   
412 616 618  1   
413 619 620  1   
414 619 621  1   
415 622 623  1   
416 622 624  1   
417 625 626  1   
418 625 627  1   
419 628 629  1   
420 628 630  1   
421 631 632  1   
422 631 633  1   
423 634 635  1   
424 634 636  1   
425 637 638  1   
426 637 639  1   
427 640 641  1   
428 640 642  1   
429 643 644  1   
430 643 645  1   
431 646 647  1   
432 646 648  1   
433 649 650  1   
434 649 651  1   
435 652 653  1   
436 652 654  1   
437 655 656  1   
438 655 657  1   
439 658 659  1   
440 658 660  1   
441 661 662  1   
442 661 663  1   
443 664 665  1   
444 664 666  1   
445 667 668  1   
446 667 669  1   
@<TRIPOS>SUBSTRUCTURE
  1 HOH   1 GROUP 4 B **** 0
  2 HOH   4 GROUP 4 B **** 0
  3 HOH   7 GROUP 4 B **** 0
  4 HOH  10 GROUP 4 B **** 0
  5 HOH  13 GROUP 4 B **** 0
  6 HOH  16 GROUP 4 B **** 0
  7 HOH  19 GROUP 4 B **** 0
  8 HOH  22 GROUP 4 B **** 0
  9 HOH  25 GROUP 4 B **** 0
 10 HOH  28 GROUP 4 B **** 0
 11 HOH  31 GROUP 4 B **** 0
 12 HOH  34 GROUP 4 B **** 0
 13 HOH  37 GROUP 4 B **** 0
 14 HOH  40 GROUP 4 B **** 0
 15 HOH  43 GROUP 4 B **** 0
 16 HOH  46 GROUP 4 B **** 0
 17 HOH  49 GROUP 4 B **** 0
 18 HOH  52 GROUP 4 B **** 0
 19 HOH  55 GROUP 4 B **** 0
 20 HOH  58 GROUP 4 B **** 0
 21 HOH  61 GROUP 4 B **** 0
 22 HOH  64 GROUP 4 B **** 0
 23 HOH  67 GROUP 4 B **** 0
 24 HOH  70 GROUP 4 B **** 0
 25 HOH  73 GROUP 4 B **** 0
 26 HOH  76 GROUP 4 B **** 0
 27 HOH  79 GROUP 4 B **** 0
 28 HOH  82 GROUP 4 B **** 0
 29 HOH  85 GROUP 4 B **** 0
 30 HOH  88 GROUP 4 B **** 0
 31 HOH  91 GROUP 4 B **** 0
 32 HOH  94 GROUP 4 B **** 0
 33 HOH  97 GROUP 4 B **** 0
 34 HOH 100 GROUP 4 B **** 0
 35 HOH 103 GROUP 4 B **** 0
 36 HOH 106 GROUP 4 B **** 0
 37 HOH 109 GROUP 4 B **** 0
 38 HOH 112 GROUP 4 B **** 0
 39 HOH 115 GROUP 4 B **** 0
 40 HOH 118 GROUP 4 B **** 0
 41 HOH 121 GROUP 4 B **** 0
 42 HOH 124 GROUP 4 B **** 0
 43 HOH 127 GROUP 4 B **** 0
 44 HOH 130 GROUP 4 B **** 0
 45 HOH 133 GROUP 4 B **** 0
 46 HOH 136 GROUP 4 B **** 0
 47 HOH 139 GROUP 4 B **** 0
 48 HOH 142 GROUP 4 B **** 0
 49 HOH 145 GROUP 4 B **** 0
 50 HOH 148 GROUP 4 B **** 0
 51 HOH 151 GROUP 4 B **** 0
 52 HOH 154 GROUP 4 B **** 0
 53 HOH 157 GROUP 4 B **** 0
 54 HOH 160 GROUP 4 B **** 0
 55 HOH 163 GROUP 4 B **** 0
 56 HOH 166 GROUP 4 B **** 0
 57 HOH 169 GROUP 4 B **** 0
 58 HOH 172 GROUP 4 B **** 0
 59 HOH 175 GROUP 4 B **** 0
 60 HOH 178 GROUP 4 B **** 0
 61 HOH 181 GROUP 4 B **** 0
 62 HOH 184 GROUP 4 B **** 0
 63 HOH 187 GROUP 4 B **** 0
 64 HOH 190 GROUP 4 B **** 0
 65 HOH 193 GROUP 4 B **** 0
 66 HOH 196 GROUP 4 B **** 0
 67 HOH 199 GROUP 4 B **** 0
 68 HOH 202 GROUP 4 B **** 0
 69 HOH 205 GROUP 4 B **** 0
 70 HOH 208 GROUP 4 B **** 0
 71 HOH 211 GROUP 4 B **** 0
 72 HOH 214 GROUP 4 B **** 0
 73 HOH 217 GROUP 4 B **** 0
 74 HOH 220 GROUP 4 B **** 0
 75 HOH 223 GROUP 4 B **** 0
 76 HOH 226 GROUP 4 B **** 0
 77 HOH 229 GROUP 4 B **** 0
 78 HOH 232 GROUP 4 B **** 0
 79 HOH 235 GROUP 4 B **** 0
 80 HOH 238 GROUP 4 B **** 0
 81 HOH 241 GROUP 4 B **** 0
 82 HOH 244 GROUP 4 B **** 0
 83 HOH 247 GROUP 4 B **** 0
 84 HOH 250 GROUP 4 B **** 0
 85 HOH 253 GROUP 4 B **** 0
 86 HOH 256 GROUP 4 B **** 0
 87 HOH 259 GROUP 4 B **** 0
 88 HOH 262 GROUP 4 B **** 0
 89 HOH 265 GROUP 4 B **** 0
 90 HOH 268 GROUP 4 B **** 0
 91 HOH 271 GROUP 4 B **** 0
 92 HOH 274 GROUP 4 B **** 0
 93 HOH 277 GROUP 4 B **** 0
 94 HOH 280 GROUP 4 B **** 0
 95 HOH 283 GROUP 4 B **** 0
 96 HOH 286 GROUP 4 B **** 0
 97 HOH 289 GROUP 4 B **** 0
 98 HOH 292 GROUP 4 B **** 0
 99 HOH 295 GROUP 4 B **** 0
100 HOH 298 GROUP 4 B **** 0
101 HOH 301 GROUP 4 B **** 0
102 HOH 304 GROUP 4 B **** 0
103 HOH 307 GROUP 4 B **** 0
104 HOH 310 GROUP 4 B **** 0
105 HOH 313 GROUP 4 B **** 0
106 HOH 316 GROUP 4 B **** 0
107 HOH 319 GROUP 4 B **** 0
108 HOH 322 GROUP 4 B **** 0
109 HOH 325 GROUP 4 B **** 0
110 HOH 328 GROUP 4 B **** 0
111 HOH 331 GROUP 4 B **** 0
112 HOH 334 GROUP 4 B **** 0
113 HOH 337 GROUP 4 B **** 0
114 HOH 340 GROUP 4 B **** 0
115 HOH 343 GROUP 4 B **** 0
116 HOH 346 GROUP 4 B **** 0
117 HOH 349 GROUP 4 B **** 0
118 HOH 352 GROUP 4 B **** 0
119 HOH 355 GROUP 4 B **** 0
120 HOH 358 GROUP 4 B **** 0
121 HOH 361 GROUP 4 B **** 0
122 HOH 364 GROUP 4 B **** 0
123 HOH 367 GROUP 4 B **** 0
124 HOH 370 GROUP 4 B **** 0
125 HOH 373 GROUP 4 B **** 0
126 HOH 376 GROUP 4 B **** 0
127 HOH 379 GROUP 4 B **** 0
128 HOH 382 GROUP 4 B **** 0
129 HOH 385 GROUP 4 B **** 0
130 HOH 388 GROUP 4 B **** 0
131 HOH 391 GROUP 4 B **** 0
132 HOH 394 GROUP 4 B **** 0
133 HOH 397 GROUP 4 B **** 0
134 HOH 400 GROUP 4 B **** 0
135 HOH 403 GROUP 4 B **** 0
136 HOH 406 GROUP 4 B **** 0
137 HOH 409 GROUP 4 B **** 0
138 HOH 412 GROUP 4 B **** 0
139 HOH 415 GROUP 4 B **** 0
140 HOH 418 GROUP 4 B **** 0
141 HOH 421 GROUP 4 B **** 0
142 HOH 424 GROUP 4 B **** 0
143 HOH 427 GROUP 4 B **** 0
144 HOH 430 GROUP 4 B **** 0
145 HOH 433 GROUP 4 B **** 0
146 HOH 436 GROUP 4 B **** 0
147 HOH 439 GROUP 4 B **** 0
148 HOH 442 GROUP 4 B **** 0
149 HOH 445 GROUP 4 B **** 0
150 HOH 448 GROUP 4 B **** 0
151 HOH 451 GROUP 4 B **** 0
152 HOH 454 GROUP 4 B **** 0
153 HOH 457 GROUP 4 B **** 0
154 HOH 460 GROUP 4 B **** 0
155 HOH 463 GROUP 4 B **** 0
156 HOH 466 GROUP 4 B **** 0
157 HOH 469 GROUP 4 B **** 0
158 HOH 472 GROUP 4 B **** 0
159 HOH 475 GROUP 4 B **** 0
160 HOH 478 GROUP 4 B **** 0
161 HOH 481 GROUP 4 B **** 0
162 HOH 484 GROUP 4 B **** 0
163 HOH 487 GROUP 4 B **** 0
164 HOH 490 GROUP 4 B **** 0
165 HOH 493 GROUP 4 B **** 0
166 HOH 496 GROUP 4 B **** 0
167 HOH 499 GROUP 4 B **** 0
168 HOH 502 GROUP 4 B **** 0
169 HOH 505 GROUP 4 B **** 0
170 HOH 508 GROUP 4 B **** 0
171 HOH 511 GROUP 4 B **** 0
172 HOH 514 GROUP 4 B **** 0
173 HOH 517 GROUP 4 B **** 0
174 HOH 520 GROUP 4 B **** 0
175 HOH 523 GROUP 4 B **** 0
176 HOH 526 GROUP 4 B **** 0
177 HOH 529 GROUP 4 B **** 0
178 HOH 532 GROUP 4 B **** 0
179 HOH 535 GROUP 4 B **** 0
180 HOH 538 GROUP 4 B **** 0
181 HOH 541 GROUP 4 B **** 0
182 HOH 544 GROUP 4 B **** 0
183 HOH 547 GROUP 4 B **** 0
184 HOH 550 GROUP 4 B **** 0
185 HOH 553 GROUP 4 B **** 0
186 HOH 556 GROUP 4 B **** 0
187 HOH 559 GROUP 4 B **** 0
188 HOH 562 GROUP 4 B **** 0
189 HOH 565 GROUP 4 B **** 0
190 HOH 568 GROUP 4 B **** 0
191 HOH 571 GROUP 4 B **** 0
192 HOH 574 GROUP 4 B **** 0
193 HOH 577 GROUP 4 B **** 0
194 HOH 580 GROUP 4 B **** 0
195 HOH 583 GROUP 4 B **** 0
196 HOH 586 GROUP 4 B **** 0
197 HOH 589 GROUP 4 B **** 0
198 HOH 592 GROUP 4 B **** 0
199 HOH 595 GROUP 4 B **** 0
200 HOH 598 GROUP 4 B **** 0
201 HOH 601 GROUP 4 B **** 0
202 HOH 604 GROUP 4 B **** 0
203 HOH 607 GROUP 4 B **** 0
204 HOH 610 GROUP 4 B **** 0
205 HOH 613 GROUP 4 B **** 0
206 HOH 616 GROUP 4 B **** 0
207 HOH 619 GROUP 4 B **** 0
208 HOH 622 GROUP 4 B **** 0
209 HOH 625 GROUP 4 B **** 0
210 HOH 628 GROUP 4 B **** 0
211 HOH 631 GROUP 4 B **** 0
212 HOH 634 GROUP 4 B **** 0
213 HOH 637 GROUP 4 B **** 0
214 HOH 640 GROUP 4 B **** 0
215 HOH 643 GROUP 4 B **** 0
216 HOH 646 GROUP 4 B **** 0
217 HOH 649 GROUP 4 B **** 0
218 HOH 652 GROUP 4 B **** 0
219 HOH 655 GROUP 4 B **** 0
220 HOH 658 GROUP 4 B **** 0
221 HOH 661 GROUP 4 B **** 0
222 HOH 664 GROUP 4 B **** 0
223 HOH 667 GROUP 4 B **** 0

# MOE 2012.10 (io_trps.svl 2012.10)
