@<TRIPOS>MOLECULE
2hiw.B
52 55 1 0 0 
SMALL
USER_CHARGES


@<TRIPOS>ATOM
  1 OAK      4.1760    19.9781    38.6978 O.2   1 Q7MP  -0.5700 
  2 CAH      3.2676    20.4097    39.4616 C.2   1 Q7MP   0.6900 
  3 NAG      2.6852    19.5717    40.4797 N.am  1 Q7MP  -0.4771 
  4 CAT      3.1597    18.1924    40.6275 C.3   1 Q7MP   0.0601 
  5 HAT1     3.9307    17.9918    39.8836 H     1 Q7MP   0.0800 
  6 HAT2     2.3270    17.5042    40.4824 H     1 Q7MP   0.0800 
  7 HAT3     3.5741    18.0558    41.6263 H     1 Q7MP   0.0800 
  8 C4       1.6652    20.0515    41.3603 C.ar  1 Q7MP   0.4270 
  9 N3       1.1144    19.2904    42.3199 N.ar  1 Q7MP  -0.6200 
 10 C2       0.1485    19.8145    43.1118 C.ar  1 Q7MP   0.7200 
 11 NAS     -0.3769    19.0099    44.0600 N.pl3 1 Q7MP  -0.9000 
 12 HAS1    -1.1018    19.3569    44.6717 H     1 Q7MP   0.4000 
 13 HAS2    -0.0451    18.0610    44.1576 H     1 Q7MP   0.4000 
 14 N1      -0.2835    21.1005    42.9606 N.ar  1 Q7MP  -0.6200 
 15 C6       0.2458    21.9069    42.0163 C.ar  1 Q7MP   0.1600 
 16 H6      -0.0823    22.9288    41.8954 H     1 Q7MP   0.1500 
 17 C5       1.2344    21.3575    41.2068 C.ar  1 Q7MP  -0.1435 
 18 CAJ      1.9138    21.8277    40.2459 C.3   1 Q7MP   0.2836 
 19 HAJ1     2.3404    22.6928    40.7534 H     1 Q7MP   0.0800 
 20 HAJ2     1.0927    22.1504    39.6058 H     1 Q7MP   0.0800 
 21 NAI      2.8058    21.6706    39.3504 N.am  1 Q7MP  -0.4771 
 22 CAL      3.3140    22.5778    38.3986 C.ar  1 Q7MP   0.1170 
 23 CAQ      4.4695    23.3039    38.6879 C.ar  1 Q7MP  -0.1435 
 24 CAR      5.1703    23.1819    40.0168 C.3   1 Q7MP  -0.0965 
 25 HAR1     4.6440    22.4589    40.6400 H     1 Q7MP   0.0800 
 26 HAR2     5.1784    24.1520    40.5137 H     1 Q7MP   0.0800 
 27 HAR3     6.1951    22.8467    39.8576 H     1 Q7MP   0.0800 
 28 CAP      4.9897    24.1843    37.7423 C.ar  1 Q7MP  -0.1500 
 29 HAP      5.8766    24.7568    37.9706 H     1 Q7MP   0.1500 
 30 CAO      4.3729    24.3284    36.5086 C.ar  1 Q7MP  -0.1500 
 31 HAO      4.7849    25.0082    35.7775 H     1 Q7MP   0.1500 
 32 CAM      2.6958    22.7117    37.1504 C.ar  1 Q7MP  -0.1500 
 33 HAM      1.8152    22.1318    36.9168 H     1 Q7MP   0.1500 
 34 CAN      3.2219    23.5985    36.2076 C.ar  1 Q7MP   0.1170 
 35 NAU      2.6813    23.7998    34.9761 N.am  1 Q7MP  -0.5470 
 36 HAU      3.1624    24.4645    34.3870 H     1 Q7MP   0.3700 
 37 CAV      1.6037    23.2350    34.4501 C.2   1 Q7MP   0.5438 
 38 OAW      0.9105    22.4083    35.0372 O.2   1 Q7MP  -0.5700 
 39 CAX      1.2260    23.6577    33.0615 C.ar  1 Q7MP   0.0862 
 40 CBC     -0.1230    23.8133    32.7700 C.ar  1 Q7MP  -0.1500 
 41 HBC     -0.8592    23.6353    33.5398 H     1 Q7MP   0.1500 
 42 CAY      2.1832    23.9098    32.0744 C.ar  1 Q7MP  -0.1500 
 43 HAY      3.2342    23.8006    32.2979 H     1 Q7MP   0.1500 
 44 CAZ      1.7760    24.3027    30.8003 C.ar  1 Q7MP  -0.1500 
 45 HAZ      2.5132    24.5016    30.0365 H     1 Q7MP   0.1500 
 46 CBA      0.4136    24.4402    30.5086 C.ar  1 Q7MP  -0.1500 
 47 HBA      0.0989    24.7352    29.5185 H     1 Q7MP   0.1500 
 48 CBB     -0.5365    24.1951    31.5005 C.ar  1 Q7MP  -0.1435 
 49 CBD     -2.0099    24.3174    31.2568 C.3   1 Q7MP   1.1635 
 50 FBE     -2.5219    23.1057    31.2659 F     1 Q7MP  -0.3400 
 51 FBF     -2.2798    24.8776    30.1004 F     1 Q7MP  -0.3400 
 52 FBG     -2.5558    25.0409    32.2083 F     1 Q7MP  -0.3400 
@<TRIPOS>BOND
  1   1   2  2   
  2   2   3  am  
  3   2  21  am  
  4   3   4  1   
  5   3   8  1   
  6   4   5  1   
  7   4   6  1   
  8   4   7  1   
  9   8   9  ar  
 10   8  17  ar  
 11   9  10  ar  
 12  10  11  1   
 13  10  14  ar  
 14  11  12  1   
 15  11  13  1   
 16  14  15  ar  
 17  15  16  1   
 18  15  17  ar  
 19  17  18  1   
 20  18  19  1   
 21  18  20  1   
 22  18  21  1   
 23  21  22  1   
 24  22  23  ar  
 25  22  32  ar  
 26  23  24  1   
 27  23  28  ar  
 28  24  25  1   
 29  24  26  1   
 30  24  27  1   
 31  28  29  1   
 32  28  30  ar  
 33  30  31  1   
 34  30  34  ar  
 35  32  33  1   
 36  32  34  ar  
 37  34  35  1   
 38  35  36  1   
 39  35  37  am  
 40  37  38  2   
 41  37  39  1   
 42  39  40  ar  
 43  39  42  ar  
 44  40  41  1   
 45  40  48  ar  
 46  42  43  1   
 47  42  44  ar  
 48  44  45  1   
 49  44  46  ar  
 50  46  47  1   
 51  46  48  ar  
 52  48  49  1   
 53  49  50  1   
 54  49  51  1   
 55  49  52  1   
@<TRIPOS>SUBSTRUCTURE
  1 Q7MP  32 GROUP 4 B **** 0

# MOE 2012.10 (io_trps.svl 2012.10)
