@<TRIPOS>MOLECULE
2hiw.B
318 212 106 0 0 
SMALL
USER_CHARGES


@<TRIPOS>ATOM
  1 O       13.9847    27.3454    53.1579 O.3     1 HOH   0.0000 
  2 H1      14.9447    27.3454    53.1579 H       1 HOH   0.0000 
  3 H2      13.6945    27.9925    53.8049 H       1 HOH   0.0000 
  4 O       -5.2177    16.4238    25.1402 O.3     2 HOH   0.0000 
  5 H1      -4.2577    16.4238    25.1402 H       2 HOH   0.0000 
  6 H2      -5.5079    17.0709    25.7873 H       2 HOH   0.0000 
  7 O        1.8590    18.4532    19.0279 O.3     3 HOH   0.0000 
  8 H1       2.8190    18.4532    19.0279 H       3 HOH   0.0000 
  9 H2       1.5687    19.1002    19.6750 H       3 HOH   0.0000 
 10 O        5.2141    20.5388    36.5424 O.3     4 HOH  -0.8340 
 11 H1       4.6959    21.3361    36.4335 H       4 HOH   0.4170 
 12 H2       4.8990    20.1579    37.3621 H       4 HOH   0.4170 
 13 O       -2.9319     1.7076    17.8612 O.3     5 HOH   0.0000 
 14 H1      -1.9719     1.7076    17.8612 H       5 HOH   0.0000 
 15 H2      -3.2222     2.3547    18.5083 H       5 HOH   0.0000 
 16 O       -1.6330    38.9389    35.3245 O.3     6 HOH   0.0000 
 17 H1      -0.6730    38.9389    35.3245 H       6 HOH   0.0000 
 18 H2      -1.9233    39.5860    35.9716 H       6 HOH   0.0000 
 19 O       21.3170    25.8201    28.3478 O.3     7 HOH   0.0000 
 20 H1      22.2770    25.8201    28.3478 H       7 HOH   0.0000 
 21 H2      21.0267    26.4672    28.9948 H       7 HOH   0.0000 
 22 O       14.7689    34.8967    40.1597 O.3     8 HOH   0.0000 
 23 H1      15.7289    34.8967    40.1597 H       8 HOH   0.0000 
 24 H2      14.4786    35.5437    40.8068 H       8 HOH   0.0000 
 25 O      -11.7713    17.9853    47.9341 O.3     9 HOH   0.0000 
 26 H1     -10.8113    17.9853    47.9341 H       9 HOH   0.0000 
 27 H2     -12.0615    18.6324    48.5812 H       9 HOH   0.0000 
 28 O      -13.1198    21.2282    52.0562 O.3    10 HOH   0.0000 
 29 H1     -12.1598    21.2282    52.0562 H      10 HOH   0.0000 
 30 H2     -13.4101    21.8752    52.7032 H      10 HOH   0.0000 
 31 O       -1.5384     4.5561    26.7770 O.3    11 HOH   0.0000 
 32 H1      -0.5784     4.5561    26.7770 H      11 HOH   0.0000 
 33 H2      -1.8287     5.2031    27.4240 H      11 HOH   0.0000 
 34 O       10.4696    10.3591    28.6018 O.3    12 HOH   0.0000 
 35 H1      11.4296    10.3591    28.6018 H      12 HOH   0.0000 
 36 H2      10.1793    11.0061    29.2488 H      12 HOH   0.0000 
 37 O        2.8892     7.3212    34.0084 O.3    13 HOH   0.0000 
 38 H1       3.8492     7.3212    34.0084 H      13 HOH   0.0000 
 39 H2       2.5989     7.9682    34.6554 H      13 HOH   0.0000 
 40 O       -4.0955    -4.2894    15.8710 O.3    14 HOH   0.0000 
 41 H1      -3.1355    -4.2894    15.8710 H      14 HOH   0.0000 
 42 H2      -4.3857    -3.6424    16.5181 H      14 HOH   0.0000 
 43 O      -16.6377     4.4895    15.7353 O.3    15 HOH   0.0000 
 44 H1     -15.6777     4.4895    15.7353 H      15 HOH   0.0000 
 45 H2     -16.9279     5.1366    16.3824 H      15 HOH   0.0000 
 46 O       -9.4069    18.5696    14.2130 O.3    16 HOH   0.0000 
 47 H1      -8.4469    18.5696    14.2130 H      16 HOH   0.0000 
 48 H2      -9.6972    19.2167    14.8601 H      16 HOH   0.0000 
 49 O      -12.5558    -1.3254    26.1930 O.3    17 HOH   0.0000 
 50 H1     -11.5958    -1.3254    26.1930 H      17 HOH   0.0000 
 51 H2     -12.8461    -0.6784    26.8400 H      17 HOH   0.0000 
 52 O       -9.2601    -6.7738    26.1832 O.3    18 HOH   0.0000 
 53 H1      -8.3001    -6.7738    26.1832 H      18 HOH   0.0000 
 54 H2      -9.5504    -6.1267    26.8302 H      18 HOH   0.0000 
 55 O        7.8734    36.6230    46.4088 O.3    19 HOH   0.0000 
 56 H1       8.8334    36.6230    46.4088 H      19 HOH   0.0000 
 57 H2       7.5831    37.2701    47.0558 H      19 HOH   0.0000 
 58 O      -13.2507    23.6354    17.9852 O.3    20 HOH   0.0000 
 59 H1     -12.2907    23.6354    17.9852 H      20 HOH   0.0000 
 60 H2     -13.5410    24.2825    18.6322 H      20 HOH   0.0000 
 61 O      -13.3550     4.7338    23.2218 O.3    21 HOH   0.0000 
 62 H1     -12.3950     4.7338    23.2218 H      21 HOH   0.0000 
 63 H2     -13.6453     5.3808    23.8689 H      21 HOH   0.0000 
 64 O       10.8587    12.7557    41.2377 O.3    22 HOH   0.0000 
 65 H1      11.8187    12.7557    41.2377 H      22 HOH   0.0000 
 66 H2      10.5684    13.4027    41.8848 H      22 HOH   0.0000 
 67 O      -30.6485    18.2562    35.5921 O.3    23 HOH   0.0000 
 68 H1     -29.6885    18.2562    35.5921 H      23 HOH   0.0000 
 69 H2     -30.9388    18.9033    36.2392 H      23 HOH   0.0000 
 70 O       -1.7539    28.3253    34.1680 O.3    24 HOH  -0.8340 
 71 H1      -1.7085    29.2550    34.3912 H      24 HOH   0.4170 
 72 H2      -1.9247    27.8865    35.0014 H      24 HOH   0.4170 
 73 O       18.1934    24.2983    25.7052 O.3    25 HOH   0.0000 
 74 H1      19.1534    24.2983    25.7052 H      25 HOH   0.0000 
 75 H2      17.9032    24.9454    26.3523 H      25 HOH   0.0000 
 76 O       17.1266    42.0551    37.6130 O.3    26 HOH   0.0000 
 77 H1      18.0866    42.0551    37.6130 H      26 HOH   0.0000 
 78 H2      16.8363    42.7021    38.2601 H      26 HOH   0.0000 
 79 O        2.2900    16.8941    12.1635 O.3    27 HOH   0.0000 
 80 H1       3.2500    16.8941    12.1635 H      27 HOH   0.0000 
 81 H2       1.9997    17.5411    12.8105 H      27 HOH   0.0000 
 82 O      -28.9400    15.9362    43.2263 O.3    28 HOH   0.0000 
 83 H1     -27.9800    15.9362    43.2263 H      28 HOH   0.0000 
 84 H2     -29.2303    16.5832    43.8733 H      28 HOH   0.0000 
 85 O      -19.4812    -1.3142    11.6386 O.3    29 HOH   0.0000 
 86 H1     -18.5212    -1.3142    11.6386 H      29 HOH   0.0000 
 87 H2     -19.7714    -0.6672    12.2857 H      29 HOH   0.0000 
 88 O       -2.6584    12.6907    23.6574 O.3    30 HOH   0.0000 
 89 H1      -1.6984    12.6907    23.6574 H      30 HOH   0.0000 
 90 H2      -2.9487    13.3377    24.3045 H      30 HOH   0.0000 
 91 O        4.3919    21.0713    30.7545 O.3    31 HOH  -0.8340 
 92 H1       3.7228    20.7241    30.1646 H      31 HOH   0.4170 
 93 H2       4.0256    20.9504    31.6306 H      31 HOH   0.4170 
 94 O       -4.0506     0.8888    35.7607 O.3    32 HOH   0.0000 
 95 H1      -3.0906     0.8888    35.7607 H      32 HOH   0.0000 
 96 H2      -4.3408     1.5358    36.4078 H      32 HOH   0.0000 
 97 O      -21.2787    19.9555    17.5161 O.3    33 HOH   0.0000 
 98 H1     -20.3187    19.9555    17.5161 H      33 HOH   0.0000 
 99 H2     -21.5690    20.6025    18.1631 H      33 HOH   0.0000 
100 O       -8.9592    10.0714    48.9113 O.3    34 HOH   0.0000 
101 H1      -7.9992    10.0714    48.9113 H      34 HOH   0.0000 
102 H2      -9.2495    10.7185    49.5583 H      34 HOH   0.0000 
103 O      -15.4880    24.0122    44.3312 O.3    35 HOH   0.0000 
104 H1     -14.5280    24.0122    44.3312 H      35 HOH   0.0000 
105 H2     -15.7783    24.6592    44.9783 H      35 HOH   0.0000 
106 O       -1.3427    34.1771    40.0478 O.3    36 HOH   0.0000 
107 H1      -0.3827    34.1771    40.0478 H      36 HOH   0.0000 
108 H2      -1.6330    34.8241    40.6949 H      36 HOH   0.0000 
109 O      -22.8182     7.5360    38.9216 O.3    37 HOH   0.0000 
110 H1     -21.8582     7.5360    38.9216 H      37 HOH   0.0000 
111 H2     -23.1085     8.1831    39.5686 H      37 HOH   0.0000 
112 O        9.3177    16.3973    26.4765 O.3    38 HOH   0.0000 
113 H1      10.2777    16.3973    26.4765 H      38 HOH   0.0000 
114 H2       9.0274    17.0444    27.1235 H      38 HOH   0.0000 
115 O       10.8565    52.6404    34.5195 O.3    39 HOH   0.0000 
116 H1      11.8165    52.6404    34.5195 H      39 HOH   0.0000 
117 H2      10.5662    53.2875    35.1665 H      39 HOH   0.0000 
118 O      -14.2372    25.6210    40.0608 O.3    40 HOH   0.0000 
119 H1     -13.2772    25.6210    40.0608 H      40 HOH   0.0000 
120 H2     -14.5274    26.2681    40.7078 H      40 HOH   0.0000 
121 O       15.5510    19.9480    24.2203 O.3    41 HOH   0.0000 
122 H1      16.5110    19.9480    24.2203 H      41 HOH   0.0000 
123 H2      15.2607    20.5950    24.8674 H      41 HOH   0.0000 
124 O       -0.3934    20.9199    16.0332 O.3    42 HOH   0.0000 
125 H1       0.5666    20.9199    16.0332 H      42 HOH   0.0000 
126 H2      -0.6837    21.5670    16.6803 H      42 HOH   0.0000 
127 O       10.6665    36.3796    32.6200 O.3    43 HOH   0.0000 
128 H1      11.6265    36.3796    32.6200 H      43 HOH   0.0000 
129 H2      10.3763    37.0267    33.2671 H      43 HOH   0.0000 
130 O       -0.7588    26.7118    52.6505 O.3    44 HOH   0.0000 
131 H1       0.2012    26.7118    52.6505 H      44 HOH   0.0000 
132 H2      -1.0491    27.3589    53.2976 H      44 HOH   0.0000 
133 O      -20.7735    29.1593    29.8716 O.3    45 HOH   0.0000 
134 H1     -19.8135    29.1593    29.8716 H      45 HOH   0.0000 
135 H2     -21.0637    29.8064    30.5186 H      45 HOH   0.0000 
136 O       -1.7056     5.4318    40.6906 O.3    46 HOH   0.0000 
137 H1      -0.7456     5.4318    40.6906 H      46 HOH   0.0000 
138 H2      -1.9959     6.0788    41.3376 H      46 HOH   0.0000 
139 O       -2.5578    34.2006    54.1972 O.3    47 HOH   0.0000 
140 H1      -1.5978    34.2006    54.1972 H      47 HOH   0.0000 
141 H2      -2.8480    34.8477    54.8443 H      47 HOH   0.0000 
142 O       -4.3818    29.9267    35.8694 O.3    48 HOH   0.0000 
143 H1      -3.4218    29.9267    35.8694 H      48 HOH   0.0000 
144 H2      -4.6721    30.5738    36.5164 H      48 HOH   0.0000 
145 O        0.2529     8.5591    40.7044 O.3    49 HOH   0.0000 
146 H1       1.2129     8.5591    40.7044 H      49 HOH   0.0000 
147 H2      -0.0373     9.2062    41.3514 H      49 HOH   0.0000 
148 O      -18.5390    26.2079    20.0707 O.3    50 HOH   0.0000 
149 H1     -17.5790    26.2079    20.0707 H      50 HOH   0.0000 
150 H2     -18.8292    26.8550    20.7177 H      50 HOH   0.0000 
151 O        7.3233    17.2599    50.1525 O.3    51 HOH   0.0000 
152 H1       8.2833    17.2599    50.1525 H      51 HOH   0.0000 
153 H2       7.0330    17.9070    50.7996 H      51 HOH   0.0000 
154 O      -32.0042    18.8759    43.4831 O.3    52 HOH   0.0000 
155 H1     -31.0442    18.8759    43.4831 H      52 HOH   0.0000 
156 H2     -32.2944    19.5230    44.1302 H      52 HOH   0.0000 
157 O       14.0865    38.9956    50.8067 O.3    53 HOH   0.0000 
158 H1      15.0465    38.9956    50.8067 H      53 HOH   0.0000 
159 H2      13.7962    39.6426    51.4537 H      53 HOH   0.0000 
160 O       -7.5120    34.3636    21.9699 O.3    54 HOH   0.0000 
161 H1      -6.5520    34.3636    21.9699 H      54 HOH   0.0000 
162 H2      -7.8023    35.0106    22.6170 H      54 HOH   0.0000 
163 O       -3.8198     0.6731    11.7545 O.3    55 HOH   0.0000 
164 H1      -2.8598     0.6731    11.7545 H      55 HOH   0.0000 
165 H2      -4.1100     1.3201    12.4016 H      55 HOH   0.0000 
166 O       -9.5758    29.4061    41.6529 O.3    56 HOH   0.0000 
167 H1      -8.6158    29.4061    41.6529 H      56 HOH   0.0000 
168 H2      -9.8661    30.0531    42.2999 H      56 HOH   0.0000 
169 O       -1.1657    29.0747    57.4325 O.3    57 HOH   0.0000 
170 H1      -0.2057    29.0747    57.4325 H      57 HOH   0.0000 
171 H2      -1.4560    29.7218    58.0796 H      57 HOH   0.0000 
172 O      -12.4199    16.4161    50.0358 O.3    58 HOH   0.0000 
173 H1     -11.4599    16.4161    50.0358 H      58 HOH   0.0000 
174 H2     -12.7102    17.0632    50.6828 H      58 HOH   0.0000 
175 O       18.3692    14.6903    32.2502 O.3    59 HOH   0.0000 
176 H1      19.3292    14.6903    32.2502 H      59 HOH   0.0000 
177 H2      18.0789    15.3374    32.8973 H      59 HOH   0.0000 
178 O       -1.1909     4.4818    34.8573 O.3    60 HOH   0.0000 
179 H1      -0.2309     4.4818    34.8573 H      60 HOH   0.0000 
180 H2      -1.4811     5.1288    35.5044 H      60 HOH   0.0000 
181 O      -29.1033     8.4824    32.8424 O.3    61 HOH   0.0000 
182 H1     -28.1433     8.4824    32.8424 H      61 HOH   0.0000 
183 H2     -29.3935     9.1295    33.4894 H      61 HOH   0.0000 
184 O      -19.1226    15.3241    48.6913 O.3    62 HOH   0.0000 
185 H1     -18.1626    15.3241    48.6913 H      62 HOH   0.0000 
186 H2     -19.4129    15.9711    49.3384 H      62 HOH   0.0000 
187 O       -1.1838    11.3656    44.4148 O.3    63 HOH   0.0000 
188 H1      -0.2238    11.3656    44.4148 H      63 HOH   0.0000 
189 H2      -1.4741    12.0126    45.0619 H      63 HOH   0.0000 
190 O       18.2074    50.7929    34.0818 O.3    64 HOH   0.0000 
191 H1      19.1674    50.7929    34.0818 H      64 HOH   0.0000 
192 H2      17.9171    51.4400    34.7288 H      64 HOH   0.0000 
193 O      -22.2479    26.8086    24.2864 O.3    65 HOH   0.0000 
194 H1     -21.2879    26.8086    24.2864 H      65 HOH   0.0000 
195 H2     -22.5382    27.4557    24.9335 H      65 HOH   0.0000 
196 O      -12.7743     4.5156    44.7610 O.3    66 HOH   0.0000 
197 H1     -11.8143     4.5156    44.7610 H      66 HOH   0.0000 
198 H2     -13.0646     5.1626    45.4080 H      66 HOH   0.0000 
199 O      -16.3934     4.8195    49.0138 O.3    67 HOH   0.0000 
200 H1     -15.4334     4.8195    49.0138 H      67 HOH   0.0000 
201 H2     -16.6837     5.4665    49.6609 H      67 HOH   0.0000 
202 O       -2.1322    26.1367    18.6220 O.3    68 HOH   0.0000 
203 H1      -1.1722    26.1367    18.6220 H      68 HOH   0.0000 
204 H2      -2.4225    26.7838    19.2691 H      68 HOH   0.0000 
205 O      -18.1067    11.0763    34.1071 O.3    69 HOH   0.0000 
206 H1     -17.1467    11.0763    34.1071 H      69 HOH   0.0000 
207 H2     -18.3970    11.7234    34.7542 H      69 HOH   0.0000 
208 O        1.9679    35.3341    57.3404 O.3    70 HOH   0.0000 
209 H1       2.9279    35.3341    57.3404 H      70 HOH   0.0000 
210 H2       1.6777    35.9812    57.9875 H      70 HOH   0.0000 
211 O       10.6695     6.2254    18.8802 O.3    71 HOH   0.0000 
212 H1      11.6295     6.2254    18.8802 H      71 HOH   0.0000 
213 H2      10.3792     6.8725    19.5273 H      71 HOH   0.0000 
214 O      -29.0962    11.0239    19.9387 O.3    72 HOH   0.0000 
215 H1     -28.1362    11.0239    19.9387 H      72 HOH   0.0000 
216 H2     -29.3864    11.6710    20.5857 H      72 HOH   0.0000 
217 O        9.2844    13.7716    34.7113 O.3    73 HOH   0.0000 
218 H1      10.2444    13.7716    34.7113 H      73 HOH   0.0000 
219 H2       8.9941    14.4186    35.3583 H      73 HOH   0.0000 
220 O        5.9271    17.2442    54.0230 O.3    74 HOH   0.0000 
221 H1       6.8871    17.2442    54.0230 H      74 HOH   0.0000 
222 H2       5.6368    17.8913    54.6700 H      74 HOH   0.0000 
223 O      -29.2682    21.0032    41.9936 O.3    75 HOH   0.0000 
224 H1     -28.3082    21.0032    41.9936 H      75 HOH   0.0000 
225 H2     -29.5585    21.6502    42.6406 H      75 HOH   0.0000 
226 O      -21.3835    27.9296    27.8715 O.3    76 HOH   0.0000 
227 H1     -20.4235    27.9296    27.8715 H      76 HOH   0.0000 
228 H2     -21.6738    28.5766    28.5186 H      76 HOH   0.0000 
229 O        8.0714    17.4877    52.6338 O.3    77 HOH   0.0000 
230 H1       9.0314    17.4877    52.6338 H      77 HOH   0.0000 
231 H2       7.7811    18.1347    53.2808 H      77 HOH   0.0000 
232 O      -26.8178    26.3450    33.1892 O.3    78 HOH   0.0000 
233 H1     -25.8578    26.3450    33.1892 H      78 HOH   0.0000 
234 H2     -27.1081    26.9920    33.8363 H      78 HOH   0.0000 
235 O       -1.2704     0.7237    12.7998 O.3    79 HOH   0.0000 
236 H1      -0.3104     0.7237    12.7998 H      79 HOH   0.0000 
237 H2      -1.5607     1.3708    13.4468 H      79 HOH   0.0000 
238 O      -27.7600     7.8989    25.9002 O.3    80 HOH   0.0000 
239 H1     -26.8000     7.8989    25.9002 H      80 HOH   0.0000 
240 H2     -28.0502     8.5460    26.5472 H      80 HOH   0.0000 
241 O       -2.1093    22.9400    15.6827 O.3    81 HOH   0.0000 
242 H1      -1.1493    22.9400    15.6827 H      81 HOH   0.0000 
243 H2      -2.3996    23.5870    16.3298 H      81 HOH   0.0000 
244 O        6.8310    16.8054    28.1258 O.3    82 HOH   0.0000 
245 H1       7.7910    16.8054    28.1258 H      82 HOH   0.0000 
246 H2       6.5407    17.4524    28.7729 H      82 HOH   0.0000 
247 O      -22.6798    15.3442    47.3901 O.3    83 HOH   0.0000 
248 H1     -21.7198    15.3442    47.3901 H      83 HOH   0.0000 
249 H2     -22.9700    15.9913    48.0371 H      83 HOH   0.0000 
250 O        3.9371    17.1120    15.4209 O.3    84 HOH   0.0000 
251 H1       4.8971    17.1120    15.4209 H      84 HOH   0.0000 
252 H2       3.6468    17.7590    16.0680 H      84 HOH   0.0000 
253 O       -1.5176    26.9588    47.5118 O.3    85 HOH   0.0000 
254 H1      -0.5576    26.9588    47.5118 H      85 HOH   0.0000 
255 H2      -1.8079    27.6059    48.1589 H      85 HOH   0.0000 
256 O      -12.5910     3.8616    47.2190 O.3    86 HOH   0.0000 
257 H1     -11.6310     3.8616    47.2190 H      86 HOH   0.0000 
258 H2     -12.8813     4.5086    47.8660 H      86 HOH   0.0000 
259 O       10.4378    17.3582    34.7328 O.3    87 HOH   0.0000 
260 H1      11.3978    17.3582    34.7328 H      87 HOH   0.0000 
261 H2      10.1475    18.0052    35.3798 H      87 HOH   0.0000 
262 O       -2.0696     9.8364    48.7211 O.3    88 HOH   0.0000 
263 H1      -1.1096     9.8364    48.7211 H      88 HOH   0.0000 
264 H2      -2.3598    10.4835    49.3682 H      88 HOH   0.0000 
265 O        6.1653    14.5279    15.0537 O.3    89 HOH   0.0000 
266 H1       7.1253    14.5279    15.0537 H      89 HOH   0.0000 
267 H2       5.8751    15.1749    15.7008 H      89 HOH   0.0000 
268 O      -24.9471     9.6329    45.7781 O.3    90 HOH   0.0000 
269 H1     -23.9871     9.6329    45.7781 H      90 HOH   0.0000 
270 H2     -25.2374    10.2800    46.4252 H      90 HOH   0.0000 
271 O      -28.6219    18.0510    29.3641 O.3    91 HOH   0.0000 
272 H1     -27.6619    18.0510    29.3641 H      91 HOH   0.0000 
273 H2     -28.9122    18.6981    30.0112 H      91 HOH   0.0000 
274 O      -10.7086    30.2175    17.7317 O.3    92 HOH   0.0000 
275 H1      -9.7486    30.2175    17.7317 H      92 HOH   0.0000 
276 H2     -10.9989    30.8646    18.3787 H      92 HOH   0.0000 
277 O      -19.7303     7.5607    18.3037 O.3    93 HOH   0.0000 
278 H1     -18.7703     7.5607    18.3037 H      93 HOH   0.0000 
279 H2     -20.0206     8.2077    18.9508 H      93 HOH   0.0000 
280 O        2.7021    38.4440    25.7713 O.3    94 HOH   0.0000 
281 H1       3.6621    38.4440    25.7713 H      94 HOH   0.0000 
282 H2       2.4118    39.0910    26.4184 H      94 HOH   0.0000 
283 O       12.7532    35.9568    54.5949 O.3    95 HOH   0.0000 
284 H1      13.7132    35.9568    54.5949 H      95 HOH   0.0000 
285 H2      12.4629    36.6038    55.2420 H      95 HOH   0.0000 
286 O      -16.4270    30.7571    28.9184 O.3    96 HOH   0.0000 
287 H1     -15.4670    30.7571    28.9184 H      96 HOH   0.0000 
288 H2     -16.7173    31.4041    29.5654 H      96 HOH   0.0000 
289 O       -6.6453     0.7862     7.7028 O.3    97 HOH   0.0000 
290 H1      -5.6853     0.7862     7.7028 H      97 HOH   0.0000 
291 H2      -6.9355     1.4333     8.3499 H      97 HOH   0.0000 
292 O       21.6738    36.4708    36.3253 O.3    98 HOH   0.0000 
293 H1      22.6338    36.4708    36.3253 H      98 HOH   0.0000 
294 H2      21.3836    37.1179    36.9723 H      98 HOH   0.0000 
295 O       13.1167    21.9200    54.0356 O.3    99 HOH   0.0000 
296 H1      14.0767    21.9200    54.0356 H      99 HOH   0.0000 
297 H2      12.8264    22.5671    54.6826 H      99 HOH   0.0000 
298 O       -2.0859    25.1654    25.9466 O.3   100 HOH  -0.8340 
299 H1      -2.1467    24.6958    25.1147 H     100 HOH   0.4170 
300 H2      -1.5690    24.5895    26.5100 H     100 HOH   0.4170 
301 O       16.9612    24.7270    44.6736 O.3   101 HOH   0.0000 
302 H1      17.9212    24.7270    44.6736 H     101 HOH   0.0000 
303 H2      16.6709    25.3741    45.3206 H     101 HOH   0.0000 
304 O      -21.5437     8.9265    14.7637 O.3   102 HOH   0.0000 
305 H1     -20.5837     8.9265    14.7637 H     102 HOH   0.0000 
306 H2     -21.8340     9.5736    15.4107 H     102 HOH   0.0000 
307 O      -16.9675    30.4167    23.7643 O.3   103 HOH   0.0000 
308 H1     -16.0075    30.4167    23.7643 H     103 HOH   0.0000 
309 H2     -17.2578    31.0638    24.4113 H     103 HOH   0.0000 
310 O        6.9854    40.8290    41.0923 O.3   104 HOH   0.0000 
311 H1       7.9454    40.8290    41.0923 H     104 HOH   0.0000 
312 H2       6.6952    41.4760    41.7393 H     104 HOH   0.0000 
313 O       -7.2022    -4.0410    32.2748 O.3   105 HOH   0.0000 
314 H1      -6.2422    -4.0410    32.2748 H     105 HOH   0.0000 
315 H2      -7.4925    -3.3939    32.9219 H     105 HOH   0.0000 
316 O      -25.7177    11.1734    43.5250 O.3   106 HOH   0.0000 
317 H1     -24.7577    11.1734    43.5250 H     106 HOH   0.0000 
318 H2     -26.0080    11.8205    44.1721 H     106 HOH   0.0000 
@<TRIPOS>BOND
  1   1   2  1   
  2   1   3  1   
  3   4   5  1   
  4   4   6  1   
  5   7   8  1   
  6   7   9  1   
  7  10  11  1   
  8  10  12  1   
  9  13  14  1   
 10  13  15  1   
 11  16  17  1   
 12  16  18  1   
 13  19  20  1   
 14  19  21  1   
 15  22  23  1   
 16  22  24  1   
 17  25  26  1   
 18  25  27  1   
 19  28  29  1   
 20  28  30  1   
 21  31  32  1   
 22  31  33  1   
 23  34  35  1   
 24  34  36  1   
 25  37  38  1   
 26  37  39  1   
 27  40  41  1   
 28  40  42  1   
 29  43  44  1   
 30  43  45  1   
 31  46  47  1   
 32  46  48  1   
 33  49  50  1   
 34  49  51  1   
 35  52  53  1   
 36  52  54  1   
 37  55  56  1   
 38  55  57  1   
 39  58  59  1   
 40  58  60  1   
 41  61  62  1   
 42  61  63  1   
 43  64  65  1   
 44  64  66  1   
 45  67  68  1   
 46  67  69  1   
 47  70  71  1   
 48  70  72  1   
 49  73  74  1   
 50  73  75  1   
 51  76  77  1   
 52  76  78  1   
 53  79  80  1   
 54  79  81  1   
 55  82  83  1   
 56  82  84  1   
 57  85  86  1   
 58  85  87  1   
 59  88  89  1   
 60  88  90  1   
 61  91  92  1   
 62  91  93  1   
 63  94  95  1   
 64  94  96  1   
 65  97  98  1   
 66  97  99  1   
 67 100 101  1   
 68 100 102  1   
 69 103 104  1   
 70 103 105  1   
 71 106 107  1   
 72 106 108  1   
 73 109 110  1   
 74 109 111  1   
 75 112 113  1   
 76 112 114  1   
 77 115 116  1   
 78 115 117  1   
 79 118 119  1   
 80 118 120  1   
 81 121 122  1   
 82 121 123  1   
 83 124 125  1   
 84 124 126  1   
 85 127 128  1   
 86 127 129  1   
 87 130 131  1   
 88 130 132  1   
 89 133 134  1   
 90 133 135  1   
 91 136 137  1   
 92 136 138  1   
 93 139 140  1   
 94 139 141  1   
 95 142 143  1   
 96 142 144  1   
 97 145 146  1   
 98 145 147  1   
 99 148 149  1   
100 148 150  1   
101 151 152  1   
102 151 153  1   
103 154 155  1   
104 154 156  1   
105 157 158  1   
106 157 159  1   
107 160 161  1   
108 160 162  1   
109 163 164  1   
110 163 165  1   
111 166 167  1   
112 166 168  1   
113 169 170  1   
114 169 171  1   
115 172 173  1   
116 172 174  1   
117 175 176  1   
118 175 177  1   
119 178 179  1   
120 178 180  1   
121 181 182  1   
122 181 183  1   
123 184 185  1   
124 184 186  1   
125 187 188  1   
126 187 189  1   
127 190 191  1   
128 190 192  1   
129 193 194  1   
130 193 195  1   
131 196 197  1   
132 196 198  1   
133 199 200  1   
134 199 201  1   
135 202 203  1   
136 202 204  1   
137 205 206  1   
138 205 207  1   
139 208 209  1   
140 208 210  1   
141 211 212  1   
142 211 213  1   
143 214 215  1   
144 214 216  1   
145 217 218  1   
146 217 219  1   
147 220 221  1   
148 220 222  1   
149 223 224  1   
150 223 225  1   
151 226 227  1   
152 226 228  1   
153 229 230  1   
154 229 231  1   
155 232 233  1   
156 232 234  1   
157 235 236  1   
158 235 237  1   
159 238 239  1   
160 238 240  1   
161 241 242  1   
162 241 243  1   
163 244 245  1   
164 244 246  1   
165 247 248  1   
166 247 249  1   
167 250 251  1   
168 250 252  1   
169 253 254  1   
170 253 255  1   
171 256 257  1   
172 256 258  1   
173 259 260  1   
174 259 261  1   
175 262 263  1   
176 262 264  1   
177 265 266  1   
178 265 267  1   
179 268 269  1   
180 268 270  1   
181 271 272  1   
182 271 273  1   
183 274 275  1   
184 274 276  1   
185 277 278  1   
186 277 279  1   
187 280 281  1   
188 280 282  1   
189 283 284  1   
190 283 285  1   
191 286 287  1   
192 286 288  1   
193 289 290  1   
194 289 291  1   
195 292 293  1   
196 292 294  1   
197 295 296  1   
198 295 297  1   
199 298 299  1   
200 298 300  1   
201 301 302  1   
202 301 303  1   
203 304 305  1   
204 304 306  1   
205 307 308  1   
206 307 309  1   
207 310 311  1   
208 310 312  1   
209 313 314  1   
210 313 315  1   
211 316 317  1   
212 316 318  1   
@<TRIPOS>SUBSTRUCTURE
  1 HOH   1 GROUP 4 B **** 0
  2 HOH   4 GROUP 4 B **** 0
  3 HOH   7 GROUP 4 B **** 0
  4 HOH  10 GROUP 4 B **** 0
  5 HOH  13 GROUP 4 B **** 0
  6 HOH  16 GROUP 4 B **** 0
  7 HOH  19 GROUP 4 B **** 0
  8 HOH  22 GROUP 4 B **** 0
  9 HOH  25 GROUP 4 B **** 0
 10 HOH  28 GROUP 4 B **** 0
 11 HOH  31 GROUP 4 B **** 0
 12 HOH  34 GROUP 4 B **** 0
 13 HOH  37 GROUP 4 B **** 0
 14 HOH  40 GROUP 4 B **** 0
 15 HOH  43 GROUP 4 B **** 0
 16 HOH  46 GROUP 4 B **** 0
 17 HOH  49 GROUP 4 B **** 0
 18 HOH  52 GROUP 4 B **** 0
 19 HOH  55 GROUP 4 B **** 0
 20 HOH  58 GROUP 4 B **** 0
 21 HOH  61 GROUP 4 B **** 0
 22 HOH  64 GROUP 4 B **** 0
 23 HOH  67 GROUP 4 B **** 0
 24 HOH  70 GROUP 4 B **** 0
 25 HOH  73 GROUP 4 B **** 0
 26 HOH  76 GROUP 4 B **** 0
 27 HOH  79 GROUP 4 B **** 0
 28 HOH  82 GROUP 4 B **** 0
 29 HOH  85 GROUP 4 B **** 0
 30 HOH  88 GROUP 4 B **** 0
 31 HOH  91 GROUP 4 B **** 0
 32 HOH  94 GROUP 4 B **** 0
 33 HOH  97 GROUP 4 B **** 0
 34 HOH 100 GROUP 4 B **** 0
 35 HOH 103 GROUP 4 B **** 0
 36 HOH 106 GROUP 4 B **** 0
 37 HOH 109 GROUP 4 B **** 0
 38 HOH 112 GROUP 4 B **** 0
 39 HOH 115 GROUP 4 B **** 0
 40 HOH 118 GROUP 4 B **** 0
 41 HOH 121 GROUP 4 B **** 0
 42 HOH 124 GROUP 4 B **** 0
 43 HOH 127 GROUP 4 B **** 0
 44 HOH 130 GROUP 4 B **** 0
 45 HOH 133 GROUP 4 B **** 0
 46 HOH 136 GROUP 4 B **** 0
 47 HOH 139 GROUP 4 B **** 0
 48 HOH 142 GROUP 4 B **** 0
 49 HOH 145 GROUP 4 B **** 0
 50 HOH 148 GROUP 4 B **** 0
 51 HOH 151 GROUP 4 B **** 0
 52 HOH 154 GROUP 4 B **** 0
 53 HOH 157 GROUP 4 B **** 0
 54 HOH 160 GROUP 4 B **** 0
 55 HOH 163 GROUP 4 B **** 0
 56 HOH 166 GROUP 4 B **** 0
 57 HOH 169 GROUP 4 B **** 0
 58 HOH 172 GROUP 4 B **** 0
 59 HOH 175 GROUP 4 B **** 0
 60 HOH 178 GROUP 4 B **** 0
 61 HOH 181 GROUP 4 B **** 0
 62 HOH 184 GROUP 4 B **** 0
 63 HOH 187 GROUP 4 B **** 0
 64 HOH 190 GROUP 4 B **** 0
 65 HOH 193 GROUP 4 B **** 0
 66 HOH 196 GROUP 4 B **** 0
 67 HOH 199 GROUP 4 B **** 0
 68 HOH 202 GROUP 4 B **** 0
 69 HOH 205 GROUP 4 B **** 0
 70 HOH 208 GROUP 4 B **** 0
 71 HOH 211 GROUP 4 B **** 0
 72 HOH 214 GROUP 4 B **** 0
 73 HOH 217 GROUP 4 B **** 0
 74 HOH 220 GROUP 4 B **** 0
 75 HOH 223 GROUP 4 B **** 0
 76 HOH 226 GROUP 4 B **** 0
 77 HOH 229 GROUP 4 B **** 0
 78 HOH 232 GROUP 4 B **** 0
 79 HOH 235 GROUP 4 B **** 0
 80 HOH 238 GROUP 4 B **** 0
 81 HOH 241 GROUP 4 B **** 0
 82 HOH 244 GROUP 4 B **** 0
 83 HOH 247 GROUP 4 B **** 0
 84 HOH 250 GROUP 4 B **** 0
 85 HOH 253 GROUP 4 B **** 0
 86 HOH 256 GROUP 4 B **** 0
 87 HOH 259 GROUP 4 B **** 0
 88 HOH 262 GROUP 4 B **** 0
 89 HOH 265 GROUP 4 B **** 0
 90 HOH 268 GROUP 4 B **** 0
 91 HOH 271 GROUP 4 B **** 0
 92 HOH 274 GROUP 4 B **** 0
 93 HOH 277 GROUP 4 B **** 0
 94 HOH 280 GROUP 4 B **** 0
 95 HOH 283 GROUP 4 B **** 0
 96 HOH 286 GROUP 4 B **** 0
 97 HOH 289 GROUP 4 B **** 0
 98 HOH 292 GROUP 4 B **** 0
 99 HOH 295 GROUP 4 B **** 0
100 HOH 298 GROUP 4 B **** 0
101 HOH 301 GROUP 4 B **** 0
102 HOH 304 GROUP 4 B **** 0
103 HOH 307 GROUP 4 B **** 0
104 HOH 310 GROUP 4 B **** 0
105 HOH 313 GROUP 4 B **** 0
106 HOH 316 GROUP 4 B **** 0

# MOE 2012.10 (io_trps.svl 2012.10)
