@<TRIPOS>MOLECULE
2v7a.A
64 68 1 0 0 
SMALL
USER_CHARGES


@<TRIPOS>ATOM
  1 N1       1.9406    19.0164    40.8477 N.pl3 1 Q627   0.2942 
  2 N2       0.2373    21.4573    42.9110 N.pl3 1 Q627   0.2120 
  3 H2       0.2007    22.4490    42.7228 H     1 Q627   0.2700 
  4 C3      -0.1276    19.4653    43.8511 C.2   1 Q627   0.3518 
  5 N4      -0.4364    20.7708    43.9573 N.2   1 Q627  -0.7068 
  6 N5      -0.6710    18.5665    44.7432 N.am  1 Q627  -0.4930 
  7 H5      -1.4840    18.8696    45.2602 H     1 Q627   0.3700 
  8 C6      -0.2277    17.3440    44.9859 C.2   1 Q627   0.5438 
  9 C7      -0.9729    16.5320    45.9737 C.ar  1 Q627   0.0862 
 10 O8       0.7557    16.8531    44.4637 O.2   1 Q627  -0.5700 
 11 C9      -0.8218    15.1555    45.9091 C.ar  1 Q627  -0.1500 
 12 H9      -0.1869    14.7246    45.1491 H     1 Q627   0.1500 
 13 C10     -1.4711    14.3287    46.8020 C.ar  1 Q627  -0.1500 
 14 H10     -1.3453    13.2571    46.7552 H     1 Q627   0.1500 
 15 C11     -2.4429    16.2997    47.8151 C.ar  1 Q627  -0.1500 
 16 H11     -3.0892    16.7297    48.5660 H     1 Q627   0.1500 
 17 C12     -1.7836    17.1299    46.9271 C.ar  1 Q627  -0.1500 
 18 H12     -1.8958    18.2030    46.9741 H     1 Q627   0.1500 
 19 C13      0.9344    20.5353    42.2170 C.2   1 Q627  -0.0390 
 20 C14      0.7160    19.2403    42.7816 C.2   1 Q627  -0.0130 
 21 C15      1.4453    18.1936    41.9990 C.2   1 Q627  -0.3016 
 22 H15      1.5776    17.1418    42.2055 H     1 Q627   0.1500 
 23 C16      1.8106    20.4800    41.0134 C.2   1 Q627  -0.3136 
 24 H16      2.2322    21.2830    40.4270 H     1 Q627   0.1500 
 25 N17     -2.9451    14.0633    48.6676 N.pl3 1 Q627  -0.8382 
 26 C18     -3.0589    12.8078    48.4772 C.3   1 Q627   0.2091 
 27 H181    -2.3594    12.3110    49.1494 H     1 Q627   0.0800 
 28 H182    -2.7748    12.6073    47.4442 H     1 Q627   0.0800 
 29 C19     -4.2661    12.2580    48.6758 C.3   1 Q627   0.3430 
 30 H191    -4.0892    11.2795    49.1223 H     1 Q627   0.0800 
 31 H192    -4.7131    12.1320    47.6897 H     1 Q627   0.0800 
 32 N20     -5.2604    12.9051    49.4939 N.4   1 Q627  -0.9590 
 33 H20     -5.1908    12.4554    50.3956 H     1 Q627   0.4500 
 34 C21     -5.0210    14.3637    49.6763 C.3   1 Q627   0.3430 
 35 H211    -5.5693    14.7069    50.5536 H     1 Q627   0.0800 
 36 H212    -5.3773    14.8955    48.7941 H     1 Q627   0.0800 
 37 C22     -3.5352    14.6595    49.8702 C.3   1 Q627   0.2091 
 38 H221    -3.3475    15.7324    49.9131 H     1 Q627   0.0800 
 39 H222    -3.1523    14.1872    50.7749 H     1 Q627   0.0800 
 40 C23     -6.6107    12.7346    48.9232 C.3   1 Q627   0.2630 
 41 H231    -6.8128    11.6733    48.7788 H     1 Q627   0.0800 
 42 H232    -6.6674    13.2491    47.9639 H     1 Q627   0.0800 
 43 H233    -7.3493    13.1556    49.6053 H     1 Q627   0.0800 
 44 C24     -2.2837    14.9024    47.7544 C.ar  1 Q627   0.1000 
 45 C25      2.4775    18.5194    39.7225 C.2   1 Q627   0.5180 
 46 O26      2.8693    19.2426    38.8084 O.2   1 Q627  -0.5700 
 47 C27      1.2302    16.5074    39.2313 C.ar  1 Q627  -0.1435 
 48 C28      0.7075    15.4039    39.9463 C.ar  1 Q627  -0.1500 
 49 H28      1.2988    14.9321    40.7171 H     1 Q627   0.1500 
 50 C29      0.4661    17.1076    38.2083 C.ar  1 Q627  -0.1500 
 51 H29      0.8720    17.9367    37.6477 H     1 Q627   0.1500 
 52 C31     -0.5693    14.9247    39.6577 C.ar  1 Q627  -0.1500 
 53 H31     -0.9791    14.0895    40.2063 H     1 Q627   0.1500 
 54 C33     -0.8045    16.6348    37.9220 C.ar  1 Q627  -0.1500 
 55 H33     -1.3964    17.1032    37.1495 H     1 Q627   0.1500 
 56 C20      2.5881    17.0334    39.5724 C.3   1 Q627   0.4045 
 57 H20      2.9141    16.5424    40.4893 H     1 Q627   0.0800 
 58 C35     -1.3168    15.5481    38.6382 C.ar  1 Q627  -0.1500 
 59 H35     -2.3048    15.1792    38.4053 H     1 Q627   0.1500 
 60 C36      3.8332    15.3467    38.3774 C.3   1 Q627   0.0400 
 61 H361     4.5910    15.2236    37.6037 H     1 Q627   0.0800 
 62 H362     2.9153    14.8457    38.0700 H     1 Q627   0.0800 
 63 H363     4.1911    14.9093    39.3095 H     1 Q627   0.0800 
 64 O34      3.5715    16.7502    38.5747 O.3   1 Q627  -0.5600 
@<TRIPOS>BOND
  1   1  21  1   
  2   1  23  1   
  3   1  45  1   
  4   2   3  1   
  5   2   5  1   
  6   2  19  1   
  7   4   5  2   
  8   4   6  1   
  9   4  20  1   
 10   6   7  1   
 11   6   8  am  
 12   8   9  1   
 13   8  10  2   
 14   9  11  ar  
 15   9  17  ar  
 16  11  12  1   
 17  11  13  ar  
 18  13  14  1   
 19  13  44  ar  
 20  15  16  1   
 21  15  17  ar  
 22  15  44  ar  
 23  17  18  1   
 24  19  20  1   
 25  19  23  2   
 26  20  21  2   
 27  21  22  1   
 28  23  24  1   
 29  25  26  1   
 30  25  37  1   
 31  25  44  1   
 32  26  27  1   
 33  26  28  1   
 34  26  29  1   
 35  29  30  1   
 36  29  31  1   
 37  29  32  1   
 38  32  33  1   
 39  32  34  1   
 40  32  40  1   
 41  34  35  1   
 42  34  36  1   
 43  34  37  1   
 44  37  38  1   
 45  37  39  1   
 46  40  41  1   
 47  40  42  1   
 48  40  43  1   
 49  45  46  2   
 50  45  56  1   
 51  47  48  ar  
 52  47  50  ar  
 53  47  56  1   
 54  48  49  1   
 55  48  52  ar  
 56  50  51  1   
 57  50  54  ar  
 58  52  53  1   
 59  52  58  ar  
 60  54  55  1   
 61  54  58  ar  
 62  56  57  1   
 63  56  64  1   
 64  58  59  1   
 65  60  61  1   
 66  60  62  1   
 67  60  63  1   
 68  60  64  1   
@<TRIPOS>SUBSTRUCTURE
  1 Q627   8 GROUP 4 A **** 0

# MOE 2012.10 (io_trps.svl 2012.10)
