@<TRIPOS>MOLECULE
2v7a.A
312 208 104 0 0 
SMALL
USER_CHARGES


@<TRIPOS>ATOM
  1 O        6.4101    35.6674    32.1819 O.3     1 HOH   0.0000 
  2 H1       7.3701    35.6674    32.1819 H       1 HOH   0.0000 
  3 H2       6.1198    36.3145    32.8289 H       1 HOH   0.0000 
  4 O       18.0283    29.6074    40.8523 O.3     2 HOH   0.0000 
  5 H1      18.9883    29.6074    40.8523 H       2 HOH   0.0000 
  6 H2      17.7381    30.2544    41.4994 H       2 HOH   0.0000 
  7 O       15.0485    31.2124    35.6891 O.3     3 HOH   0.0000 
  8 H1      16.0085    31.2124    35.6891 H       3 HOH   0.0000 
  9 H2      14.7583    31.8595    36.3362 H       3 HOH   0.0000 
 10 O        7.6101    14.4188    56.2003 O.3     4 HOH   0.0000 
 11 H1       8.5701    14.4188    56.2003 H       4 HOH   0.0000 
 12 H2       7.3199    15.0659    56.8474 H       4 HOH   0.0000 
 13 O        7.1445    13.0723    53.5837 O.3     5 HOH   0.0000 
 14 H1       8.1045    13.0723    53.5837 H       5 HOH   0.0000 
 15 H2       6.8542    13.7194    54.2307 H       5 HOH   0.0000 
 16 O        1.9034    14.6507    42.9911 O.3     6 HOH  -0.8340 
 17 H1       1.5642    15.4347    43.4230 H       6 HOH   0.4170 
 18 H2       2.6871    14.4216    43.4906 H       6 HOH   0.4170 
 19 O        1.6369    12.1751    38.5108 O.3     7 HOH  -0.8340 
 20 H1       1.1662    11.4715    38.9576 H       7 HOH   0.4170 
 21 H2       2.4701    12.2405    38.9775 H       7 HOH   0.4170 
 22 O        4.4883     8.5168    43.3481 O.3     8 HOH   0.0000 
 23 H1       5.4483     8.5168    43.3481 H       8 HOH   0.0000 
 24 H2       4.1980     9.1638    43.9952 H       8 HOH   0.0000 
 25 O        8.6130    15.1982    37.6761 O.3     9 HOH  -0.8340 
 26 H1       9.5264    15.2254    37.3913 H       9 HOH   0.4170 
 27 H2       8.6326    15.5222    38.5766 H       9 HOH   0.4170 
 28 O        8.6845    16.8315    30.2321 O.3    10 HOH   0.0000 
 29 H1       9.6445    16.8315    30.2321 H      10 HOH   0.0000 
 30 H2       8.3942    17.4785    30.8791 H      10 HOH   0.0000 
 31 O       11.3473    10.5903    40.4070 O.3    11 HOH   0.0000 
 32 H1      12.3073    10.5903    40.4070 H      11 HOH   0.0000 
 33 H2      11.0571    11.2374    41.0541 H      11 HOH   0.0000 
 34 O        7.3761    11.2495    43.1490 O.3    12 HOH   0.0000 
 35 H1       8.3361    11.2495    43.1490 H      12 HOH   0.0000 
 36 H2       7.0858    11.8966    43.7961 H      12 HOH   0.0000 
 37 O        7.3759     9.4927    47.1925 O.3    13 HOH   0.0000 
 38 H1       8.3359     9.4927    47.1925 H      13 HOH   0.0000 
 39 H2       7.0856    10.1397    47.8396 H      13 HOH   0.0000 
 40 O       14.9190    31.9040    54.7370 O.3    14 HOH   0.0000 
 41 H1      15.8790    31.9040    54.7370 H      14 HOH   0.0000 
 42 H2      14.6287    32.5510    55.3841 H      14 HOH   0.0000 
 43 O       10.7064    32.8582    52.1289 O.3    15 HOH   0.0000 
 44 H1      11.6664    32.8582    52.1289 H      15 HOH   0.0000 
 45 H2      10.4162    33.5052    52.7760 H      15 HOH   0.0000 
 46 O        0.0611    27.5349    46.6624 O.3    16 HOH   0.0000 
 47 H1       1.0211    27.5349    46.6624 H      16 HOH   0.0000 
 48 H2      -0.2292    28.1819    47.3094 H      16 HOH   0.0000 
 49 O       -0.9520    28.2190    52.5766 O.3    17 HOH   0.0000 
 50 H1       0.0080    28.2190    52.5766 H      17 HOH   0.0000 
 51 H2      -1.2423    28.8660    53.2237 H      17 HOH   0.0000 
 52 O        6.8007    16.3316    35.9000 O.3    18 HOH  -0.8340 
 53 H1       7.5560    16.0527    36.4177 H      18 HOH   0.4170 
 54 H2       7.1764    16.6476    35.0783 H      18 HOH   0.4170 
 55 O        3.4374    21.5349    35.0625 O.3    19 HOH  -0.8340 
 56 H1       4.2613    21.0493    35.0225 H      19 HOH   0.4170 
 57 H2       3.6987    22.4548    35.0205 H      19 HOH   0.4170 
 58 O        9.0797    31.3015    28.8523 O.3    20 HOH   0.0000 
 59 H1      10.0397    31.3015    28.8523 H      20 HOH   0.0000 
 60 H2       8.7894    31.9486    29.4993 H      20 HOH   0.0000 
 61 O        2.2871    32.2655    34.3354 O.3    21 HOH   0.0000 
 62 H1       3.2471    32.2655    34.3354 H      21 HOH   0.0000 
 63 H2       1.9969    32.9125    34.9825 H      21 HOH   0.0000 
 64 O       -8.9622    29.7897    40.2220 O.3    22 HOH   0.0000 
 65 H1      -8.0022    29.7897    40.2220 H      22 HOH   0.0000 
 66 H2      -9.2525    30.4367    40.8691 H      22 HOH   0.0000 
 67 O       -5.6508    33.0804    36.9865 O.3    23 HOH   0.0000 
 68 H1      -4.6908    33.0804    36.9865 H      23 HOH   0.0000 
 69 H2      -5.9411    33.7275    37.6335 H      23 HOH   0.0000 
 70 O       -2.3341    29.4962    35.5448 O.3    24 HOH   0.0000 
 71 H1      -1.3741    29.4962    35.5448 H      24 HOH   0.0000 
 72 H2      -2.6244    30.1432    36.1918 H      24 HOH   0.0000 
 73 O       -0.7320    27.8697    34.3250 O.3    25 HOH   0.0000 
 74 H1       0.2280    27.8697    34.3250 H      25 HOH   0.0000 
 75 H2      -1.0223    28.5167    34.9721 H      25 HOH   0.0000 
 76 O       -3.4073    32.1808    38.3258 O.3    26 HOH   0.0000 
 77 H1      -2.4473    32.1808    38.3258 H      26 HOH   0.0000 
 78 H2      -3.6976    32.8278    38.9728 H      26 HOH   0.0000 
 79 O        0.0669    13.0565    42.6583 O.3    27 HOH  -0.8340 
 80 H1       0.0297    12.3714    43.3257 H      27 HOH   0.4170 
 81 H2       0.8856    13.5198    42.8353 H      27 HOH   0.4170 
 82 O       -3.3193     8.8919    39.0013 O.3    28 HOH   0.0000 
 83 H1      -2.3593     8.8919    39.0013 H      28 HOH   0.0000 
 84 H2      -3.6096     9.5389    39.6483 H      28 HOH   0.0000 
 85 O       -2.5432    13.1315    43.3714 O.3    29 HOH  -0.8340 
 86 H1      -1.6297    13.1588    43.0866 H      29 HOH   0.4170 
 87 H2      -2.5235    13.4555    44.2719 H      29 HOH   0.4170 
 88 O       -8.0509     5.7408    43.6585 O.3    30 HOH   0.0000 
 89 H1      -7.0909     5.7408    43.6585 H      30 HOH   0.0000 
 90 H2      -8.3412     6.3879    44.3055 H      30 HOH   0.0000 
 91 O      -12.3181    12.1398    46.7976 O.3    31 HOH  -0.8340 
 92 H1     -12.5245    12.1599    45.8631 H      31 HOH   0.4170 
 93 H2     -13.1394    11.8873    47.2194 H      31 HOH   0.4170 
 94 O      -16.6481     6.9903    42.7374 O.3    32 HOH   0.0000 
 95 H1     -15.6881     6.9903    42.7374 H      32 HOH   0.0000 
 96 H2     -16.9384     7.6374    43.3844 H      32 HOH   0.0000 
 97 O      -16.1223     6.5590    45.7732 O.3    33 HOH   0.0000 
 98 H1     -15.1623     6.5590    45.7732 H      33 HOH   0.0000 
 99 H2     -16.4126     7.2060    46.4203 H      33 HOH   0.0000 
100 O       -6.1665     3.4624    36.4051 O.3    34 HOH   0.0000 
101 H1      -5.2065     3.4624    36.4051 H      34 HOH   0.0000 
102 H2      -6.4567     4.1095    37.0521 H      34 HOH   0.0000 
103 O       -5.3551     8.6830    46.8646 O.3    35 HOH  -0.8340 
104 H1      -6.3005     8.6226    47.0013 H      35 HOH   0.4170 
105 H2      -5.1140     7.8407    46.4792 H      35 HOH   0.4170 
106 O      -23.1270     7.3002    40.2124 O.3    36 HOH   0.0000 
107 H1     -22.1670     7.3002    40.2124 H      36 HOH   0.0000 
108 H2     -23.4173     7.9472    40.8594 H      36 HOH   0.0000 
109 O      -24.9326    11.1840    42.7733 O.3    37 HOH   0.0000 
110 H1     -23.9726    11.1840    42.7733 H      37 HOH   0.0000 
111 H2     -25.2229    11.8311    43.4204 H      37 HOH   0.0000 
112 O      -27.7828    13.5485    48.7151 O.3    38 HOH   0.0000 
113 H1     -26.8228    13.5485    48.7151 H      38 HOH   0.0000 
114 H2     -28.0731    14.1955    49.3622 H      38 HOH   0.0000 
115 O      -22.8601    19.0270    45.6735 O.3    39 HOH   0.0000 
116 H1     -21.9001    19.0270    45.6735 H      39 HOH   0.0000 
117 H2     -23.1504    19.6741    46.3205 H      39 HOH   0.0000 
118 O      -23.8922    14.9653    34.9306 O.3    40 HOH   0.0000 
119 H1     -22.9322    14.9653    34.9306 H      40 HOH   0.0000 
120 H2     -24.1824    15.6123    35.5776 H      40 HOH   0.0000 
121 O      -27.1766    16.8638    40.3526 O.3    41 HOH   0.0000 
122 H1     -26.2166    16.8638    40.3526 H      41 HOH   0.0000 
123 H2     -27.4669    17.5109    40.9997 H      41 HOH   0.0000 
124 O      -19.5678    16.2526    32.7171 O.3    42 HOH   0.0000 
125 H1     -18.6078    16.2526    32.7171 H      42 HOH   0.0000 
126 H2     -19.8581    16.8996    33.3642 H      42 HOH   0.0000 
127 O      -23.9508    12.6404    35.8507 O.3    43 HOH   0.0000 
128 H1     -22.9908    12.6404    35.8507 H      43 HOH   0.0000 
129 H2     -24.2411    13.2875    36.4978 H      43 HOH   0.0000 
130 O      -22.0291    15.1633    32.8243 O.3    44 HOH   0.0000 
131 H1     -21.0691    15.1633    32.8243 H      44 HOH   0.0000 
132 H2     -22.3193    15.8104    33.4713 H      44 HOH   0.0000 
133 O      -10.7429    24.0400    17.6925 O.3    45 HOH   0.0000 
134 H1      -9.7829    24.0400    17.6925 H      45 HOH   0.0000 
135 H2     -11.0332    24.6871    18.3395 H      45 HOH   0.0000 
136 O      -21.2722    12.7699    32.1442 O.3    46 HOH   0.0000 
137 H1     -20.3122    12.7699    32.1442 H      46 HOH   0.0000 
138 H2     -21.5624    13.4169    32.7913 H      46 HOH   0.0000 
139 O        0.3680     9.8062    37.2484 O.3    47 HOH  -0.8340 
140 H1      -0.4011     9.6578    37.7986 H      47 HOH   0.4170 
141 H2       0.9865     9.1248    37.5117 H      47 HOH   0.4170 
142 O        2.7006    16.2830    30.6063 O.3    48 HOH   0.0000 
143 H1       3.6606    16.2830    30.6063 H      48 HOH   0.0000 
144 H2       2.4103    16.9301    31.2534 H      48 HOH   0.0000 
145 O        0.1770    11.0819    31.1655 O.3    49 HOH   0.0000 
146 H1       1.1370    11.0819    31.1655 H      49 HOH   0.0000 
147 H2      -0.1133    11.7290    31.8126 H      49 HOH   0.0000 
148 O       -2.2576    11.6908    28.8729 O.3    50 HOH   0.0000 
149 H1      -1.2976    11.6908    28.8729 H      50 HOH   0.0000 
150 H2      -2.5479    12.3379    29.5199 H      50 HOH   0.0000 
151 O       -3.7771    12.5776    27.0962 O.3    51 HOH   0.0000 
152 H1      -2.8171    12.5776    27.0962 H      51 HOH   0.0000 
153 H2      -4.0674    13.2246    27.7433 H      51 HOH   0.0000 
154 O       -4.6155     7.3945    33.9624 O.3    52 HOH   0.0000 
155 H1      -3.6555     7.3945    33.9624 H      52 HOH   0.0000 
156 H2      -4.9058     8.0415    34.6094 H      52 HOH   0.0000 
157 O       -1.9620    11.1732    38.4022 O.3    53 HOH  -0.8340 
158 H1      -2.5360    11.2669    39.1625 H      53 HOH   0.4170 
159 H2      -2.0781    11.9871    37.9121 H      53 HOH   0.4170 
160 O        0.2373    13.2352    36.8869 O.3    54 HOH  -0.8340 
161 H1       0.4916    13.4757    37.7778 H      54 HOH   0.4170 
162 H2      -0.7118    13.3584    36.8668 H      54 HOH   0.4170 
163 O      -11.7940    26.3646    45.6040 O.3    55 HOH   0.0000 
164 H1     -10.8340    26.3646    45.6040 H      55 HOH   0.0000 
165 H2     -12.0843    27.0116    46.2510 H      55 HOH   0.0000 
166 O       -7.5910    24.4546    47.1145 O.3    56 HOH   0.0000 
167 H1      -6.6310    24.4546    47.1145 H      56 HOH   0.0000 
168 H2      -7.8813    25.1017    47.7616 H      56 HOH   0.0000 
169 O      -13.1939    19.7039    46.2057 O.3    57 HOH   0.0000 
170 H1     -12.2339    19.7039    46.2057 H      57 HOH   0.0000 
171 H2     -13.4841    20.3510    46.8528 H      57 HOH   0.0000 
172 O        4.7554    14.7202    34.9824 O.3    58 HOH  -0.8340 
173 H1       5.4032    15.2579    35.4379 H      58 HOH   0.4170 
174 H2       4.0264    15.3165    34.8110 H      58 HOH   0.4170 
175 O        1.6651    18.9898    28.9088 O.3    59 HOH   0.0000 
176 H1       2.6251    18.9898    28.9088 H      59 HOH   0.0000 
177 H2       1.3748    19.6369    29.5558 H      59 HOH   0.0000 
178 O      -13.1643     2.5183    39.6552 O.3    60 HOH   0.0000 
179 H1     -12.2043     2.5183    39.6552 H      60 HOH   0.0000 
180 H2     -13.4546     3.1653    40.3023 H      60 HOH   0.0000 
181 O       -4.4649    23.3697    15.8522 O.3    61 HOH   0.0000 
182 H1      -3.5049    23.3697    15.8522 H      61 HOH   0.0000 
183 H2      -4.7552    24.0167    16.4993 H      61 HOH   0.0000 
184 O        8.0198    20.5460    16.1245 O.3    62 HOH   0.0000 
185 H1       8.9798    20.5460    16.1245 H      62 HOH   0.0000 
186 H2       7.7295    21.1930    16.7716 H      62 HOH   0.0000 
187 O        8.0529    15.0990    21.1043 O.3    63 HOH   0.0000 
188 H1       9.0129    15.0990    21.1043 H      63 HOH   0.0000 
189 H2       7.7626    15.7461    21.7513 H      63 HOH   0.0000 
190 O        8.9443     7.4730    15.7965 O.3    64 HOH   0.0000 
191 H1       9.9043     7.4730    15.7965 H      64 HOH   0.0000 
192 H2       8.6541     8.1200    16.4435 H      64 HOH   0.0000 
193 O        2.3120     4.5351    21.8902 O.3    65 HOH   0.0000 
194 H1       3.2720     4.5351    21.8902 H      65 HOH   0.0000 
195 H2       2.0218     5.1822    22.5373 H      65 HOH   0.0000 
196 O        2.3884     6.6119    20.4408 O.3    66 HOH   0.0000 
197 H1       3.3484     6.6119    20.4408 H      66 HOH   0.0000 
198 H2       2.0981     7.2589    21.0878 H      66 HOH   0.0000 
199 O       -0.4052     3.2045    26.4505 O.3    67 HOH   0.0000 
200 H1       0.5548     3.2045    26.4505 H      67 HOH   0.0000 
201 H2      -0.6955     3.8515    27.0975 H      67 HOH   0.0000 
202 O       -5.8771    -0.2345    29.8699 O.3    68 HOH   0.0000 
203 H1      -4.9171    -0.2345    29.8699 H      68 HOH   0.0000 
204 H2      -6.1674     0.4126    30.5170 H      68 HOH   0.0000 
205 O       -3.2925     4.0601    27.5822 O.3    69 HOH   0.0000 
206 H1      -2.3325     4.0601    27.5822 H      69 HOH   0.0000 
207 H2      -3.5827     4.7072    28.2292 H      69 HOH   0.0000 
208 O       -6.9030     6.5231    21.4649 O.3    70 HOH   0.0000 
209 H1      -5.9430     6.5231    21.4649 H      70 HOH   0.0000 
210 H2      -7.1933     7.1702    22.1119 H      70 HOH   0.0000 
211 O       -5.3159     9.4594    11.3996 O.3    71 HOH   0.0000 
212 H1      -4.3559     9.4594    11.3996 H      71 HOH   0.0000 
213 H2      -5.6062    10.1065    12.0467 H      71 HOH   0.0000 
214 O       -4.4401    16.4167    15.7184 O.3    72 HOH   0.0000 
215 H1      -3.4801    16.4167    15.7184 H      72 HOH   0.0000 
216 H2      -4.7304    17.0638    16.3654 H      72 HOH   0.0000 
217 O       -2.9832    16.6531    21.9044 O.3    73 HOH   0.0000 
218 H1      -2.0232    16.6531    21.9044 H      73 HOH   0.0000 
219 H2      -3.2735    17.3001    22.5515 H      73 HOH   0.0000 
220 O       -5.2629    13.0163    22.0662 O.3    74 HOH   0.0000 
221 H1      -4.3029    13.0163    22.0662 H      74 HOH   0.0000 
222 H2      -5.5532    13.6634    22.7133 H      74 HOH   0.0000 
223 O       -4.1587    16.0686    25.4504 O.3    75 HOH   0.0000 
224 H1      -3.1987    16.0686    25.4504 H      75 HOH   0.0000 
225 H2      -4.4489    16.7156    26.0974 H      75 HOH   0.0000 
226 O       -8.9918     6.5026    33.7047 O.3    76 HOH   0.0000 
227 H1      -8.0318     6.5026    33.7047 H      76 HOH   0.0000 
228 H2      -9.2820     7.1496    34.3518 H      76 HOH   0.0000 
229 O       -6.3257     9.6275    33.7875 O.3    77 HOH   0.0000 
230 H1      -5.3657     9.6275    33.7875 H      77 HOH   0.0000 
231 H2      -6.6160    10.2745    34.4345 H      77 HOH   0.0000 
232 O      -14.7828     4.6293    39.9939 O.3    78 HOH   0.0000 
233 H1     -13.8228     4.6293    39.9939 H      78 HOH   0.0000 
234 H2     -15.0731     5.2764    40.6409 H      78 HOH   0.0000 
235 O       -6.0705     2.7345    32.2600 O.3    79 HOH   0.0000 
236 H1      -5.1105     2.7345    32.2600 H      79 HOH   0.0000 
237 H2      -6.3608     3.3815    32.9071 H      79 HOH   0.0000 
238 O      -11.6892     0.7580    36.3187 O.3    80 HOH   0.0000 
239 H1     -10.7292     0.7580    36.3187 H      80 HOH   0.0000 
240 H2     -11.9795     1.4051    36.9658 H      80 HOH   0.0000 
241 O      -12.1284     0.0455    33.0458 O.3    81 HOH   0.0000 
242 H1     -11.1684     0.0455    33.0458 H      81 HOH   0.0000 
243 H2     -12.4187     0.6925    33.6928 H      81 HOH   0.0000 
244 O       -9.1895     7.2331    22.9734 O.3    82 HOH   0.0000 
245 H1      -8.2295     7.2331    22.9734 H      82 HOH   0.0000 
246 H2      -9.4798     7.8801    23.6205 H      82 HOH   0.0000 
247 O      -14.9139    -2.5714    26.6034 O.3    83 HOH   0.0000 
248 H1     -13.9539    -2.5714    26.6034 H      83 HOH   0.0000 
249 H2     -15.2042    -1.9244    27.2504 H      83 HOH   0.0000 
250 O       -9.9026    -8.4943    28.2125 O.3    84 HOH   0.0000 
251 H1      -8.9426    -8.4943    28.2125 H      84 HOH   0.0000 
252 H2     -10.1929    -7.8472    28.8595 H      84 HOH   0.0000 
253 O       -3.5237     0.2161    19.5587 O.3    85 HOH   0.0000 
254 H1      -2.5637     0.2161    19.5587 H      85 HOH   0.0000 
255 H2      -3.8140     0.8632    20.2057 H      85 HOH   0.0000 
256 O       -2.7852    -4.1922    27.0731 O.3    86 HOH   0.0000 
257 H1      -1.8252    -4.1922    27.0731 H      86 HOH   0.0000 
258 H2      -3.0754    -3.5452    27.7201 H      86 HOH   0.0000 
259 O       -4.2549    -1.0966    16.9373 O.3    87 HOH   0.0000 
260 H1      -3.2949    -1.0966    16.9373 H      87 HOH   0.0000 
261 H2      -4.5452    -0.4496    17.5843 H      87 HOH   0.0000 
262 O       -0.6187    -3.3005    18.0002 O.3    88 HOH   0.0000 
263 H1       0.3413    -3.3005    18.0002 H      88 HOH   0.0000 
264 H2      -0.9090    -2.6535    18.6473 H      88 HOH   0.0000 
265 O      -14.9793    -0.2974    25.5351 O.3    89 HOH   0.0000 
266 H1     -14.0193    -0.2974    25.5351 H      89 HOH   0.0000 
267 H2     -15.2696     0.3497    26.1821 H      89 HOH   0.0000 
268 O      -13.5672     6.2522    13.2730 O.3    90 HOH   0.0000 
269 H1     -12.6072     6.2522    13.2730 H      90 HOH   0.0000 
270 H2     -13.8575     6.8992    13.9200 H      90 HOH   0.0000 
271 O      -14.0350     6.0632    22.3980 O.3    91 HOH   0.0000 
272 H1     -13.0750     6.0632    22.3980 H      91 HOH   0.0000 
273 H2     -14.3253     6.7103    23.0450 H      91 HOH   0.0000 
274 O      -17.1851     1.2589    26.5784 O.3    92 HOH   0.0000 
275 H1     -16.2251     1.2589    26.5784 H      92 HOH   0.0000 
276 H2     -17.4754     1.9060    27.2254 H      92 HOH   0.0000 
277 O      -26.4930    -0.7258    37.0284 O.3    93 HOH   0.0000 
278 H1     -25.5330    -0.7258    37.0284 H      93 HOH   0.0000 
279 H2     -26.7833    -0.0788    37.6755 H      93 HOH   0.0000 
280 O      -30.1723    11.9770    29.2578 O.3    94 HOH   0.0000 
281 H1     -29.2123    11.9770    29.2578 H      94 HOH   0.0000 
282 H2     -30.4626    12.6240    29.9048 H      94 HOH   0.0000 
283 O      -17.3582     9.4101    17.8003 O.3    95 HOH   0.0000 
284 H1     -16.3982     9.4101    17.8003 H      95 HOH   0.0000 
285 H2     -17.6485    10.0572    18.4473 H      95 HOH   0.0000 
286 O      -15.1991    12.3105    11.1959 O.3    96 HOH   0.0000 
287 H1     -14.2391    12.3105    11.1959 H      96 HOH   0.0000 
288 H2     -15.4894    12.9576    11.8430 H      96 HOH   0.0000 
289 O       -7.3546    10.9538    12.3771 O.3    97 HOH   0.0000 
290 H1      -6.3946    10.9538    12.3771 H      97 HOH   0.0000 
291 H2      -7.6449    11.6008    13.0241 H      97 HOH   0.0000 
292 O       -7.4142     8.7377     7.4341 O.3    98 HOH   0.0000 
293 H1      -6.4542     8.7377     7.4341 H      98 HOH   0.0000 
294 H2      -7.7044     9.3847     8.0811 H      98 HOH   0.0000 
295 O       -9.7822    16.6825     9.5502 O.3    99 HOH   0.0000 
296 H1      -8.8222    16.6825     9.5502 H      99 HOH   0.0000 
297 H2     -10.0725    17.3295    10.1972 H      99 HOH   0.0000 
298 O      -15.6454    21.0082    13.4195 O.3   100 HOH   0.0000 
299 H1     -14.6854    21.0082    13.4195 H     100 HOH   0.0000 
300 H2     -15.9357    21.6553    14.0665 H     100 HOH   0.0000 
301 O      -15.2877    27.8551    17.4776 O.3   101 HOH   0.0000 
302 H1     -14.3277    27.8551    17.4776 H     101 HOH   0.0000 
303 H2     -15.5780    28.5022    18.1247 H     101 HOH   0.0000 
304 O      -18.1602    21.3243    15.3721 O.3   102 HOH   0.0000 
305 H1     -17.2002    21.3243    15.3721 H     102 HOH   0.0000 
306 H2     -18.4505    21.9714    16.0192 H     102 HOH   0.0000 
307 O      -16.6429    28.7602    32.8994 O.3   103 HOH   0.0000 
308 H1     -15.6829    28.7602    32.8994 H     103 HOH   0.0000 
309 H2     -16.9332    29.4072    33.5464 H     103 HOH   0.0000 
310 O        1.6629    21.0036    37.0051 O.3   104 HOH  -0.8340 
311 H1       2.4370    20.9874    36.4423 H     104 HOH   0.4170 
312 H2       1.9785    20.6997    37.8561 H     104 HOH   0.4170 
@<TRIPOS>BOND
  1   1   2  1   
  2   1   3  1   
  3   4   5  1   
  4   4   6  1   
  5   7   8  1   
  6   7   9  1   
  7  10  11  1   
  8  10  12  1   
  9  13  14  1   
 10  13  15  1   
 11  16  17  1   
 12  16  18  1   
 13  19  20  1   
 14  19  21  1   
 15  22  23  1   
 16  22  24  1   
 17  25  26  1   
 18  25  27  1   
 19  28  29  1   
 20  28  30  1   
 21  31  32  1   
 22  31  33  1   
 23  34  35  1   
 24  34  36  1   
 25  37  38  1   
 26  37  39  1   
 27  40  41  1   
 28  40  42  1   
 29  43  44  1   
 30  43  45  1   
 31  46  47  1   
 32  46  48  1   
 33  49  50  1   
 34  49  51  1   
 35  52  53  1   
 36  52  54  1   
 37  55  56  1   
 38  55  57  1   
 39  58  59  1   
 40  58  60  1   
 41  61  62  1   
 42  61  63  1   
 43  64  65  1   
 44  64  66  1   
 45  67  68  1   
 46  67  69  1   
 47  70  71  1   
 48  70  72  1   
 49  73  74  1   
 50  73  75  1   
 51  76  77  1   
 52  76  78  1   
 53  79  80  1   
 54  79  81  1   
 55  82  83  1   
 56  82  84  1   
 57  85  86  1   
 58  85  87  1   
 59  88  89  1   
 60  88  90  1   
 61  91  92  1   
 62  91  93  1   
 63  94  95  1   
 64  94  96  1   
 65  97  98  1   
 66  97  99  1   
 67 100 101  1   
 68 100 102  1   
 69 103 104  1   
 70 103 105  1   
 71 106 107  1   
 72 106 108  1   
 73 109 110  1   
 74 109 111  1   
 75 112 113  1   
 76 112 114  1   
 77 115 116  1   
 78 115 117  1   
 79 118 119  1   
 80 118 120  1   
 81 121 122  1   
 82 121 123  1   
 83 124 125  1   
 84 124 126  1   
 85 127 128  1   
 86 127 129  1   
 87 130 131  1   
 88 130 132  1   
 89 133 134  1   
 90 133 135  1   
 91 136 137  1   
 92 136 138  1   
 93 139 140  1   
 94 139 141  1   
 95 142 143  1   
 96 142 144  1   
 97 145 146  1   
 98 145 147  1   
 99 148 149  1   
100 148 150  1   
101 151 152  1   
102 151 153  1   
103 154 155  1   
104 154 156  1   
105 157 158  1   
106 157 159  1   
107 160 161  1   
108 160 162  1   
109 163 164  1   
110 163 165  1   
111 166 167  1   
112 166 168  1   
113 169 170  1   
114 169 171  1   
115 172 173  1   
116 172 174  1   
117 175 176  1   
118 175 177  1   
119 178 179  1   
120 178 180  1   
121 181 182  1   
122 181 183  1   
123 184 185  1   
124 184 186  1   
125 187 188  1   
126 187 189  1   
127 190 191  1   
128 190 192  1   
129 193 194  1   
130 193 195  1   
131 196 197  1   
132 196 198  1   
133 199 200  1   
134 199 201  1   
135 202 203  1   
136 202 204  1   
137 205 206  1   
138 205 207  1   
139 208 209  1   
140 208 210  1   
141 211 212  1   
142 211 213  1   
143 214 215  1   
144 214 216  1   
145 217 218  1   
146 217 219  1   
147 220 221  1   
148 220 222  1   
149 223 224  1   
150 223 225  1   
151 226 227  1   
152 226 228  1   
153 229 230  1   
154 229 231  1   
155 232 233  1   
156 232 234  1   
157 235 236  1   
158 235 237  1   
159 238 239  1   
160 238 240  1   
161 241 242  1   
162 241 243  1   
163 244 245  1   
164 244 246  1   
165 247 248  1   
166 247 249  1   
167 250 251  1   
168 250 252  1   
169 253 254  1   
170 253 255  1   
171 256 257  1   
172 256 258  1   
173 259 260  1   
174 259 261  1   
175 262 263  1   
176 262 264  1   
177 265 266  1   
178 265 267  1   
179 268 269  1   
180 268 270  1   
181 271 272  1   
182 271 273  1   
183 274 275  1   
184 274 276  1   
185 277 278  1   
186 277 279  1   
187 280 281  1   
188 280 282  1   
189 283 284  1   
190 283 285  1   
191 286 287  1   
192 286 288  1   
193 289 290  1   
194 289 291  1   
195 292 293  1   
196 292 294  1   
197 295 296  1   
198 295 297  1   
199 298 299  1   
200 298 300  1   
201 301 302  1   
202 301 303  1   
203 304 305  1   
204 304 306  1   
205 307 308  1   
206 307 309  1   
207 310 311  1   
208 310 312  1   
@<TRIPOS>SUBSTRUCTURE
  1 HOH   1 GROUP 4 A **** 0
  2 HOH   4 GROUP 4 A **** 0
  3 HOH   7 GROUP 4 A **** 0
  4 HOH  10 GROUP 4 A **** 0
  5 HOH  13 GROUP 4 A **** 0
  6 HOH  16 GROUP 4 A **** 0
  7 HOH  19 GROUP 4 A **** 0
  8 HOH  22 GROUP 4 A **** 0
  9 HOH  25 GROUP 4 A **** 0
 10 HOH  28 GROUP 4 A **** 0
 11 HOH  31 GROUP 4 A **** 0
 12 HOH  34 GROUP 4 A **** 0
 13 HOH  37 GROUP 4 A **** 0
 14 HOH  40 GROUP 4 A **** 0
 15 HOH  43 GROUP 4 A **** 0
 16 HOH  46 GROUP 4 A **** 0
 17 HOH  49 GROUP 4 A **** 0
 18 HOH  52 GROUP 4 A **** 0
 19 HOH  55 GROUP 4 A **** 0
 20 HOH  58 GROUP 4 A **** 0
 21 HOH  61 GROUP 4 A **** 0
 22 HOH  64 GROUP 4 A **** 0
 23 HOH  67 GROUP 4 A **** 0
 24 HOH  70 GROUP 4 A **** 0
 25 HOH  73 GROUP 4 A **** 0
 26 HOH  76 GROUP 4 A **** 0
 27 HOH  79 GROUP 4 A **** 0
 28 HOH  82 GROUP 4 A **** 0
 29 HOH  85 GROUP 4 A **** 0
 30 HOH  88 GROUP 4 A **** 0
 31 HOH  91 GROUP 4 A **** 0
 32 HOH  94 GROUP 4 A **** 0
 33 HOH  97 GROUP 4 A **** 0
 34 HOH 100 GROUP 4 A **** 0
 35 HOH 103 GROUP 4 A **** 0
 36 HOH 106 GROUP 4 A **** 0
 37 HOH 109 GROUP 4 A **** 0
 38 HOH 112 GROUP 4 A **** 0
 39 HOH 115 GROUP 4 A **** 0
 40 HOH 118 GROUP 4 A **** 0
 41 HOH 121 GROUP 4 A **** 0
 42 HOH 124 GROUP 4 A **** 0
 43 HOH 127 GROUP 4 A **** 0
 44 HOH 130 GROUP 4 A **** 0
 45 HOH 133 GROUP 4 A **** 0
 46 HOH 136 GROUP 4 A **** 0
 47 HOH 139 GROUP 4 A **** 0
 48 HOH 142 GROUP 4 A **** 0
 49 HOH 145 GROUP 4 A **** 0
 50 HOH 148 GROUP 4 A **** 0
 51 HOH 151 GROUP 4 A **** 0
 52 HOH 154 GROUP 4 A **** 0
 53 HOH 157 GROUP 4 A **** 0
 54 HOH 160 GROUP 4 A **** 0
 55 HOH 163 GROUP 4 A **** 0
 56 HOH 166 GROUP 4 A **** 0
 57 HOH 169 GROUP 4 A **** 0
 58 HOH 172 GROUP 4 A **** 0
 59 HOH 175 GROUP 4 A **** 0
 60 HOH 178 GROUP 4 A **** 0
 61 HOH 181 GROUP 4 A **** 0
 62 HOH 184 GROUP 4 A **** 0
 63 HOH 187 GROUP 4 A **** 0
 64 HOH 190 GROUP 4 A **** 0
 65 HOH 193 GROUP 4 A **** 0
 66 HOH 196 GROUP 4 A **** 0
 67 HOH 199 GROUP 4 A **** 0
 68 HOH 202 GROUP 4 A **** 0
 69 HOH 205 GROUP 4 A **** 0
 70 HOH 208 GROUP 4 A **** 0
 71 HOH 211 GROUP 4 A **** 0
 72 HOH 214 GROUP 4 A **** 0
 73 HOH 217 GROUP 4 A **** 0
 74 HOH 220 GROUP 4 A **** 0
 75 HOH 223 GROUP 4 A **** 0
 76 HOH 226 GROUP 4 A **** 0
 77 HOH 229 GROUP 4 A **** 0
 78 HOH 232 GROUP 4 A **** 0
 79 HOH 235 GROUP 4 A **** 0
 80 HOH 238 GROUP 4 A **** 0
 81 HOH 241 GROUP 4 A **** 0
 82 HOH 244 GROUP 4 A **** 0
 83 HOH 247 GROUP 4 A **** 0
 84 HOH 250 GROUP 4 A **** 0
 85 HOH 253 GROUP 4 A **** 0
 86 HOH 256 GROUP 4 A **** 0
 87 HOH 259 GROUP 4 A **** 0
 88 HOH 262 GROUP 4 A **** 0
 89 HOH 265 GROUP 4 A **** 0
 90 HOH 268 GROUP 4 A **** 0
 91 HOH 271 GROUP 4 A **** 0
 92 HOH 274 GROUP 4 A **** 0
 93 HOH 277 GROUP 4 A **** 0
 94 HOH 280 GROUP 4 A **** 0
 95 HOH 283 GROUP 4 A **** 0
 96 HOH 286 GROUP 4 A **** 0
 97 HOH 289 GROUP 4 A **** 0
 98 HOH 292 GROUP 4 A **** 0
 99 HOH 295 GROUP 4 A **** 0
100 HOH 298 GROUP 4 A **** 0
101 HOH 301 GROUP 4 A **** 0
102 HOH 304 GROUP 4 A **** 0
103 HOH 307 GROUP 4 A **** 0
104 HOH 310 GROUP 4 A **** 0

# MOE 2012.10 (io_trps.svl 2012.10)
