@<TRIPOS>MOLECULE
3ue4.A
66 69 1 0 0 
SMALL
USER_CHARGES


@<TRIPOS>ATOM
  1 CAA      1.3924    13.8471    44.0762 C.3   1 DB8   0.0400 
  2 HAA1     1.4983    12.8244    44.4380 H     1 DB8   0.0800 
  3 HAA2     2.3681    14.3330    44.0694 H     1 DB8   0.0800 
  4 HAA3     0.9858    13.8345    43.0649 H     1 DB8   0.0800 
  5 O02      5.8342    20.9991    40.4654 O.3   1 DB8  -0.3625 
  6 CAC     -2.7113    14.7793    48.0624 C.3   1 DB8   0.3430 
  7 HAC1    -1.7115    14.3519    48.1378 H     1 DB8   0.0800 
  8 HAC2    -3.0457    14.7409    47.0257 H     1 DB8   0.0800 
  9 NAD      1.8180    21.2450    39.5127 N.1   1 DB8  -0.5571 
 10 CL1      6.1450    20.5750    37.4347 Cl    1 DB8  -0.1770 
 11 CL2      1.9796    16.9053    38.0506 Cl    1 DB8  -0.1770 
 12 CAG      1.4015    20.7105    40.4159 C.1   1 DB8   0.4841 
 13 CAH     -0.0496    20.7457    42.5413 C.ar  1 DB8   0.1600 
 14 HAH     -0.2826    21.7791    42.3312 H     1 DB8   0.1500 
 15 CAI      4.0688    18.7684    37.8603 C.ar  1 DB8  -0.1500 
 16 HAI      4.1078    18.5520    36.8029 H     1 DB8   0.1500 
 17 CAJ      3.9774    19.3810    40.7992 C.ar  1 DB8  -0.1500 
 18 HAJ      3.9421    19.5967    41.8569 H     1 DB8   0.1500 
 19 CAK     -0.9624    18.1103    45.2384 C.ar  1 DB8  -0.1500 
 20 HAK     -1.6182    18.6774    45.8824 H     1 DB8   0.1500 
 21 CAL      0.8613    16.4863    43.4494 C.ar  1 DB8  -0.1500 
 22 HAL      1.5164    15.9081    42.8147 H     1 DB8   0.1500 
 23 CAM     -2.6899    16.2239    48.5420 C.3   1 DB8  -0.1600 
 24 HAM1    -2.3751    16.2587    49.5849 H     1 DB8   0.0800 
 25 HAM2    -3.6865    16.6554    48.4487 H     1 DB8   0.0800 
 26 CAN     -1.7054    17.0154    47.6820 C.3   1 DB8   0.1200 
 27 HAN1    -0.8698    17.3592    48.2917 H     1 DB8   0.0800 
 28 HAN2    -2.2066    17.8740    47.2352 H     1 DB8   0.0800 
 29 CAO     -6.9816    12.5510    50.5011 C.3   1 DB8   0.0300 
 30 HAO1    -7.1278    11.4992    50.2553 H     1 DB8   0.0800 
 31 HAO2    -7.4315    13.1713    49.7259 H     1 DB8   0.0800 
 32 HAO3    -7.4525    12.7690    51.4596 H     1 DB8   0.0800 
 33 CAP     -4.2217    12.7076    48.5606 C.3   1 DB8   0.3430 
 34 HAP1    -5.0841    12.8510    47.9096 H     1 DB8   0.0800 
 35 HAP2    -3.4699    12.1126    48.0420 H     1 DB8   0.0800 
 36 CAQ     -4.6322    14.8087    49.6216 C.3   1 DB8   0.3430 
 37 HAQ1    -4.2003    15.7827    49.8512 H     1 DB8   0.0800 
 38 HAQ2    -5.5093    14.9404    48.9879 H     1 DB8   0.0800 
 39 CAR     -4.6563    11.9884    49.8486 C.3   1 DB8   0.1100 
 40 HAR1    -3.7794    11.7720    50.4587 H     1 DB8   0.0800 
 41 HAR2    -5.1602    11.0562    49.5931 H     1 DB8   0.0800 
 42 CAS     -5.0358    14.1340    50.8920 C.3   1 DB8   0.1100 
 43 HAS1    -5.8015    14.7262    51.3931 H     1 DB8   0.0800 
 44 HAS2    -4.1685    14.0344    51.5446 H     1 DB8   0.0800 
 45 NAT     -0.6195    20.1249    43.7011 N.ar  1 DB8  -0.6200 
 46 NAU      2.0650    17.7154    41.0518 N.pl3 1 DB8  -0.6000 
 47 HAU      1.9962    16.7079    41.0706 H     1 DB8   0.4000 
 48 OAV      0.5295    14.5495    44.9149 O.3   1 DB8  -0.3625 
 49 OAW     -1.2451    16.1551    46.6804 O.3   1 DB8  -0.3625 
 50 CAX      4.9640    20.0817    39.9210 C.ar  1 DB8   0.0825 
 51 CAY      5.0053    19.7679    38.4513 C.ar  1 DB8   0.1770 
 52 CAZ      3.0774    18.0667    38.7291 C.ar  1 DB8   0.1770 
 53 CBA      0.8588    20.0021    41.6136 C.ar  1 DB8   0.0730 
 54 CBB      3.0353    18.3747    40.2009 C.ar  1 DB8   0.1000 
 55 CBC      0.2374    15.8706    44.6612 C.ar  1 DB8   0.0825 
 56 CBD     -0.6515    16.6836    45.5419 C.ar  1 DB8   0.0825 
 57 CBE      1.1832    18.5431    41.8864 C.ar  1 DB8   0.1000 
 58 CBF     -0.3457    18.7506    44.0160 C.ar  1 DB8   0.3100 
 59 CBG      0.5614    17.9200    43.1314 C.ar  1 DB8   0.0000 
 60 NBH     -3.6579    14.0058    48.9275 N.4   1 DB8  -0.9590 
 61 HBH     -2.9130    13.6838    49.5287 H     1 DB8   0.4500 
 62 NBI     -5.5571    12.8362    50.5845 N.3   1 DB8  -0.8100 
 63 C01      5.4447    21.7705    41.5525 C.3   1 DB8   0.0400 
 64 H011     6.2616    22.4327    41.8395 H     1 DB8   0.0800 
 65 H012     5.1943    21.1186    42.3895 H     1 DB8   0.0800 
 66 H013     4.5725    22.3655    41.2820 H     1 DB8   0.0800 
@<TRIPOS>BOND
  1   1   2  1   
  2   1   3  1   
  3   1   4  1   
  4   1  48  1   
  5   5  50  1   
  6   5  63  1   
  7   6   7  1   
  8   6   8  1   
  9   6  23  1   
 10   6  60  1   
 11   9  12  3   
 12  10  51  1   
 13  11  52  1   
 14  12  53  1   
 15  13  14  1   
 16  13  45  ar  
 17  13  53  ar  
 18  15  16  1   
 19  15  51  ar  
 20  15  52  ar  
 21  17  18  1   
 22  17  50  ar  
 23  17  54  ar  
 24  19  20  1   
 25  19  56  ar  
 26  19  58  ar  
 27  21  22  1   
 28  21  55  ar  
 29  21  59  ar  
 30  23  24  1   
 31  23  25  1   
 32  23  26  1   
 33  26  27  1   
 34  26  28  1   
 35  26  49  1   
 36  29  30  1   
 37  29  31  1   
 38  29  32  1   
 39  29  62  1   
 40  33  34  1   
 41  33  35  1   
 42  33  39  1   
 43  33  60  1   
 44  36  37  1   
 45  36  38  1   
 46  36  42  1   
 47  36  60  1   
 48  39  40  1   
 49  39  41  1   
 50  39  62  1   
 51  42  43  1   
 52  42  44  1   
 53  42  62  1   
 54  45  58  ar  
 55  46  47  1   
 56  46  54  1   
 57  46  57  1   
 58  48  55  1   
 59  49  56  1   
 60  50  51  ar  
 61  52  54  ar  
 62  53  57  ar  
 63  55  56  ar  
 64  57  59  ar  
 65  58  59  ar  
 66  60  61  1   
 67  63  64  1   
 68  63  65  1   
 69  63  66  1   
@<TRIPOS>SUBSTRUCTURE
  1 DB8  59 GROUP 4 A **** 0

# MOE 2012.10 (io_trps.svl 2012.10)
