@<TRIPOS>MOLECULE
3ue4.A
267 178 89 0 0 
SMALL
USER_CHARGES


@<TRIPOS>ATOM
  1 O      -16.3446     6.9090    45.5993 O.3    1 HOH   0.0000 
  2 H1     -15.3846     6.9090    45.5993 H      1 HOH   0.0000 
  3 H2     -16.6348     7.5561    46.2463 H      1 HOH   0.0000 
  4 O       -0.2130    27.3193    46.9486 O.3    2 HOH   0.0000 
  5 H1       0.7470    27.3193    46.9486 H      2 HOH   0.0000 
  6 H2      -0.5033    27.9663    47.5956 H      2 HOH   0.0000 
  7 O       -9.0995     7.1464    22.6054 O.3    3 HOH   0.0000 
  8 H1      -8.1395     7.1464    22.6054 H      3 HOH   0.0000 
  9 H2      -9.3898     7.7934    23.2524 H      3 HOH   0.0000 
 10 O       -6.1957     9.6856    33.8593 O.3    4 HOH   0.0000 
 11 H1      -5.2357     9.6856    33.8593 H      4 HOH   0.0000 
 12 H2      -6.4860    10.3326    34.5064 H      4 HOH   0.0000 
 13 O       -9.2598     6.1656    33.9789 O.3    5 HOH   0.0000 
 14 H1      -8.2998     6.1656    33.9789 H      5 HOH   0.0000 
 15 H2      -9.5500     6.8127    34.6260 H      5 HOH   0.0000 
 16 O       -3.5856    22.9400    16.2542 O.3    6 HOH   0.0000 
 17 H1      -2.6256    22.9400    16.2542 H      6 HOH   0.0000 
 18 H2      -3.8758    23.5871    16.9013 H      6 HOH   0.0000 
 19 O       -7.1163     6.0663    21.6212 O.3    7 HOH   0.0000 
 20 H1      -6.1563     6.0663    21.6212 H      7 HOH   0.0000 
 21 H2      -7.4066     6.7134    22.2683 H      7 HOH   0.0000 
 22 O      -22.6564    19.0468    45.8007 O.3    8 HOH   0.0000 
 23 H1     -21.6964    19.0468    45.8007 H      8 HOH   0.0000 
 24 H2     -22.9466    19.6939    46.4478 H      8 HOH   0.0000 
 25 O      -13.1466    19.8332    46.4242 O.3    9 HOH   0.0000 
 26 H1     -12.1866    19.8332    46.4242 H      9 HOH   0.0000 
 27 H2     -13.4369    20.4803    47.0712 H      9 HOH   0.0000 
 28 O       -1.1750     0.9776    18.7604 O.3   10 HOH   0.0000 
 29 H1      -0.2150     0.9776    18.7604 H     10 HOH   0.0000 
 30 H2      -1.4653     1.6246    19.4075 H     10 HOH   0.0000 
 31 O       -3.8170    -0.0027    19.2709 O.3   11 HOH   0.0000 
 32 H1      -2.8570    -0.0027    19.2709 H     11 HOH   0.0000 
 33 H2      -4.1073     0.6444    19.9179 H     11 HOH   0.0000 
 34 O      -25.1025    11.6074    42.6471 O.3   12 HOH   0.0000 
 35 H1     -24.1425    11.6074    42.6471 H     12 HOH   0.0000 
 36 H2     -25.3928    12.2545    43.2941 H     12 HOH   0.0000 
 37 O       -4.0773    12.8083    21.5462 O.3   13 HOH   0.0000 
 38 H1      -3.1173    12.8083    21.5462 H     13 HOH   0.0000 
 39 H2      -4.3676    13.4554    22.1933 H     13 HOH   0.0000 
 40 O      -10.2765    -8.6035    28.1199 O.3   14 HOH   0.0000 
 41 H1      -9.3165    -8.6035    28.1199 H     14 HOH   0.0000 
 42 H2     -10.5668    -7.9565    28.7669 H     14 HOH   0.0000 
 43 O      -27.4605    11.9202    35.8769 O.3   15 HOH   0.0000 
 44 H1     -26.5005    11.9202    35.8769 H     15 HOH   0.0000 
 45 H2     -27.7508    12.5673    36.5239 H     15 HOH   0.0000 
 46 O       -1.9330    29.6947    35.7614 O.3   16 HOH   0.0000 
 47 H1      -0.9730    29.6947    35.7614 H     16 HOH   0.0000 
 48 H2      -2.2233    30.3417    36.4084 H     16 HOH   0.0000 
 49 O      -24.6773     8.3847    45.3983 O.3   17 HOH   0.0000 
 50 H1     -23.7173     8.3847    45.3983 H     17 HOH   0.0000 
 51 H2     -24.9676     9.0317    46.0454 H     17 HOH   0.0000 
 52 O        4.9955    19.3921    12.9775 O.3   18 HOH   0.0000 
 53 H1       5.9555    19.3921    12.9775 H     18 HOH   0.0000 
 54 H2       4.7052    20.0391    13.6246 H     18 HOH   0.0000 
 55 O       -4.7931     7.6887    34.2035 O.3   19 HOH   0.0000 
 56 H1      -3.8331     7.6887    34.2035 H     19 HOH   0.0000 
 57 H2      -5.0833     8.3358    34.8506 H     19 HOH   0.0000 
 58 O      -14.1035     6.1249    22.2301 O.3   20 HOH   0.0000 
 59 H1     -13.1435     6.1249    22.2301 H     20 HOH   0.0000 
 60 H2     -14.3938     6.7720    22.8772 H     20 HOH   0.0000 
 61 O      -15.1471    26.9590    43.4743 O.3   21 HOH   0.0000 
 62 H1     -14.1871    26.9590    43.4743 H     21 HOH   0.0000 
 63 H2     -15.4374    27.6060    44.1213 H     21 HOH   0.0000 
 64 O       -7.1927     5.2727    34.1027 O.3   22 HOH   0.0000 
 65 H1      -6.2327     5.2727    34.1027 H     22 HOH   0.0000 
 66 H2      -7.4830     5.9198    34.7498 H     22 HOH   0.0000 
 67 O      -15.4326    -2.5538    27.1147 O.3   23 HOH   0.0000 
 68 H1     -14.4726    -2.5538    27.1147 H     23 HOH   0.0000 
 69 H2     -15.7228    -1.9067    27.7618 H     23 HOH   0.0000 
 70 O       -8.9118    12.1409    47.1489 O.3   24 HOH  -0.8340 
 71 H1      -8.2792    12.2738    46.4429 H     24 HOH   0.4170 
 72 H2      -9.0997    11.2026    47.1292 H     24 HOH   0.4170 
 73 O      -27.3668     7.3323    23.4718 O.3   25 HOH   0.0000 
 74 H1     -26.4068     7.3323    23.4718 H     25 HOH   0.0000 
 75 H2     -27.6571     7.9793    24.1188 H     25 HOH   0.0000 
 76 O      -21.4543    25.4199    21.4848 O.3   26 HOH   0.0000 
 77 H1     -20.4943    25.4199    21.4848 H     26 HOH   0.0000 
 78 H2     -21.7445    26.0670    22.1318 H     26 HOH   0.0000 
 79 O      -16.6388     7.2257    42.7576 O.3   27 HOH   0.0000 
 80 H1     -15.6788     7.2257    42.7576 H     27 HOH   0.0000 
 81 H2     -16.9291     7.8727    43.4046 H     27 HOH   0.0000 
 82 O       -4.8724    -1.6940    16.7489 O.3   28 HOH   0.0000 
 83 H1      -3.9124    -1.6940    16.7489 H     28 HOH   0.0000 
 84 H2      -5.1627    -1.0469    17.3960 H     28 HOH   0.0000 
 85 O      -17.2075     9.3624    17.3664 O.3   29 HOH   0.0000 
 86 H1     -16.2475     9.3624    17.3664 H     29 HOH   0.0000 
 87 H2     -17.4977    10.0095    18.0134 H     29 HOH   0.0000 
 88 O      -12.3542    12.0709    47.0392 O.3   30 HOH  -0.8340 
 89 H1     -11.4270    12.2939    46.9572 H     30 HOH   0.4170 
 90 H2     -12.4462    11.7531    47.9374 H     30 HOH   0.4170 
 91 O        1.8585    29.1189    35.6026 O.3   31 HOH   0.0000 
 92 H1       2.8185    29.1189    35.6026 H     31 HOH   0.0000 
 93 H2       1.5682    29.7660    36.2497 H     31 HOH   0.0000 
 94 O      -13.9778     6.4249    12.5216 O.3   32 HOH   0.0000 
 95 H1     -13.0178     6.4249    12.5216 H     32 HOH   0.0000 
 96 H2     -14.2681     7.0720    13.1687 H     32 HOH   0.0000 
 97 O      -18.9306     2.3464    18.4878 O.3   33 HOH   0.0000 
 98 H1     -17.9706     2.3464    18.4878 H     33 HOH   0.0000 
 99 H2     -19.2209     2.9935    19.1348 H     33 HOH   0.0000 
100 O       10.9261    32.1755    51.9491 O.3   34 HOH   0.0000 
101 H1      11.8861    32.1755    51.9491 H     34 HOH   0.0000 
102 H2      10.6358    32.8226    52.5962 H     34 HOH   0.0000 
103 O       -3.6270     3.4717    27.5723 O.3   35 HOH   0.0000 
104 H1      -2.6670     3.4717    27.5723 H     35 HOH   0.0000 
105 H2      -3.9173     4.1187    28.2193 H     35 HOH   0.0000 
106 O       -7.5805    10.9166    12.5498 O.3   36 HOH   0.0000 
107 H1      -6.6205    10.9166    12.5498 H     36 HOH   0.0000 
108 H2      -7.8708    11.5637    13.1968 H     36 HOH   0.0000 
109 O        3.7900    24.2513    57.4626 O.3   37 HOH   0.0000 
110 H1       4.7500    24.2513    57.4626 H     37 HOH   0.0000 
111 H2       3.4998    24.8984    58.1097 H     37 HOH   0.0000 
112 O      -14.5075    12.5861    11.1073 O.3   38 HOH   0.0000 
113 H1     -13.5475    12.5861    11.1073 H     38 HOH   0.0000 
114 H2     -14.7977    13.2331    11.7544 H     38 HOH   0.0000 
115 O       -6.7349    13.1308    45.0005 O.3   39 HOH  -0.8340 
116 H1      -7.2846    13.1072    44.2173 H     39 HOH   0.4170 
117 H2      -6.8441    14.0176    45.3437 H     39 HOH   0.4170 
118 O      -16.2558    13.9471    48.2619 O.3   40 HOH   0.0000 
119 H1     -15.2958    13.9471    48.2619 H     40 HOH   0.0000 
120 H2     -16.5460    14.5942    48.9090 H     40 HOH   0.0000 
121 O      -15.4417     9.7249    12.7708 O.3   41 HOH   0.0000 
122 H1     -14.4817     9.7249    12.7708 H     41 HOH   0.0000 
123 H2     -15.7319    10.3720    13.4178 H     41 HOH   0.0000 
124 O       -3.1147    -5.2781    26.2804 O.3   42 HOH   0.0000 
125 H1      -2.1547    -5.2781    26.2804 H     42 HOH   0.0000 
126 H2      -3.4050    -4.6310    26.9274 H     42 HOH   0.0000 
127 O       -4.5715    17.0518    15.2134 O.3   43 HOH   0.0000 
128 H1      -3.6115    17.0518    15.2134 H     43 HOH   0.0000 
129 H2      -4.8618    17.6988    15.8604 H     43 HOH   0.0000 
130 O      -19.7492    29.5943    35.4067 O.3   44 HOH   0.0000 
131 H1     -18.7892    29.5943    35.4067 H     44 HOH   0.0000 
132 H2     -20.0395    30.2414    36.0538 H     44 HOH   0.0000 
133 O       -4.5561    25.7977    17.3328 O.3   45 HOH   0.0000 
134 H1      -3.5961    25.7977    17.3328 H     45 HOH   0.0000 
135 H2      -4.8464    26.4447    17.9798 H     45 HOH   0.0000 
136 O      -27.7370     5.6214    31.5026 O.3   46 HOH   0.0000 
137 H1     -26.7770     5.6214    31.5026 H     46 HOH   0.0000 
138 H2     -28.0273     6.2685    32.1496 H     46 HOH   0.0000 
139 O       -3.9458    11.9311    28.0544 O.3   47 HOH   0.0000 
140 H1      -2.9858    11.9311    28.0544 H     47 HOH   0.0000 
141 H2      -4.2360    12.5782    28.7014 H     47 HOH   0.0000 
142 O       -0.3952     3.2575    26.9793 O.3   48 HOH   0.0000 
143 H1       0.5648     3.2575    26.9793 H     48 HOH   0.0000 
144 H2      -0.6854     3.9045    27.6263 H     48 HOH   0.0000 
145 O      -10.3409    29.5437    21.5872 O.3   49 HOH   0.0000 
146 H1      -9.3809    29.5437    21.5872 H     49 HOH   0.0000 
147 H2     -10.6312    30.1908    22.2343 H     49 HOH   0.0000 
148 O       -5.0831     8.3530    11.1271 O.3   50 HOH   0.0000 
149 H1      -4.1231     8.3530    11.1271 H     50 HOH   0.0000 
150 H2      -5.3734     9.0000    11.7741 H     50 HOH   0.0000 
151 O      -14.8959    28.2697    17.0052 O.3   51 HOH   0.0000 
152 H1     -13.9359    28.2697    17.0052 H     51 HOH   0.0000 
153 H2     -15.1862    28.9167    17.6522 H     51 HOH   0.0000 
154 O        1.7181    22.2688    36.7469 O.3   52 HOH  -0.8340 
155 H1       1.6144    22.9999    36.1378 H     52 HOH   0.4170 
156 H2       1.5270    22.6437    37.6066 H     52 HOH   0.4170 
157 O        1.0323    11.1408    34.1797 O.3   53 HOH   0.0000 
158 H1       1.9923    11.1408    34.1797 H     53 HOH   0.0000 
159 H2       0.7421    11.7878    34.8268 H     53 HOH   0.0000 
160 O      -13.8671     4.5552    10.3308 O.3   54 HOH   0.0000 
161 H1     -12.9071     4.5552    10.3308 H     54 HOH   0.0000 
162 H2     -14.1573     5.2023    10.9778 H     54 HOH   0.0000 
163 O      -12.6571    22.7884    12.3123 O.3   55 HOH   0.0000 
164 H1     -11.6971    22.7884    12.3123 H     55 HOH   0.0000 
165 H2     -12.9474    23.4354    12.9594 H     55 HOH   0.0000 
166 O       -6.3673    26.8039    16.6778 O.3   56 HOH   0.0000 
167 H1      -5.4073    26.8039    16.6778 H     56 HOH   0.0000 
168 H2      -6.6575    27.4509    17.3249 H     56 HOH   0.0000 
169 O       -5.9239    10.0854    10.6291 O.3   57 HOH   0.0000 
170 H1      -4.9639    10.0854    10.6291 H     57 HOH   0.0000 
171 H2      -6.2142    10.7324    11.2761 H     57 HOH   0.0000 
172 O      -22.7137     6.9459    40.1614 O.3   58 HOH   0.0000 
173 H1     -21.7537     6.9459    40.1614 H     58 HOH   0.0000 
174 H2     -23.0040     7.5929    40.8085 H     58 HOH   0.0000 
175 O      -17.8116    28.8145    35.6722 O.3   59 HOH   0.0000 
176 H1     -16.8516    28.8145    35.6722 H     59 HOH   0.0000 
177 H2     -18.1018    29.4615    36.3192 H     59 HOH   0.0000 
178 O        1.0912    11.9737    24.1340 O.3   60 HOH   0.0000 
179 H1       2.0512    11.9737    24.1340 H     60 HOH   0.0000 
180 H2       0.8009    12.6208    24.7811 H     60 HOH   0.0000 
181 O       -9.0769    12.3968     8.0374 O.3   61 HOH   0.0000 
182 H1      -8.1169    12.3968     8.0374 H     61 HOH   0.0000 
183 H2      -9.3672    13.0438     8.6845 H     61 HOH   0.0000 
184 O      -19.8776     4.1365    16.4334 O.3   62 HOH   0.0000 
185 H1     -18.9176     4.1365    16.4334 H     62 HOH   0.0000 
186 H2     -20.1679     4.7835    17.0805 H     62 HOH   0.0000 
187 O      -28.4528    15.9102    27.5756 O.3   63 HOH   0.0000 
188 H1     -27.4928    15.9102    27.5756 H     63 HOH   0.0000 
189 H2     -28.7431    16.5573    28.2226 H     63 HOH   0.0000 
190 O       -2.5934    13.7613    43.4979 O.3   64 HOH  -0.8340 
191 H1      -2.0031    14.3485    43.0258 H     64 HOH   0.4170 
192 H2      -2.0418    13.3510    44.1639 H     64 HOH   0.4170 
193 O       -4.2317    10.6098    45.6463 O.3   65 HOH  -0.8340 
194 H1      -4.7984     9.8393    45.6076 H     65 HOH   0.4170 
195 H2      -4.8039    11.3405    45.4121 H     65 HOH   0.4170 
196 O        3.4434    33.1522    25.4507 O.3   66 HOH   0.0000 
197 H1       4.4034    33.1522    25.4507 H     66 HOH   0.0000 
198 H2       3.1532    33.7992    26.0977 H     66 HOH   0.0000 
199 O      -28.2729    18.2466    20.6018 O.3   67 HOH   0.0000 
200 H1     -27.3129    18.2466    20.6018 H     67 HOH   0.0000 
201 H2     -28.5631    18.8937    21.2489 H     67 HOH   0.0000 
202 O      -29.1016     7.3425    21.8411 O.3   68 HOH   0.0000 
203 H1     -28.1416     7.3425    21.8411 H     68 HOH   0.0000 
204 H2     -29.3919     7.9896    22.4881 H     68 HOH   0.0000 
205 O       -8.3140     5.9229    44.2158 O.3   69 HOH   0.0000 
206 H1      -7.3540     5.9229    44.2158 H     69 HOH   0.0000 
207 H2      -8.6043     6.5699    44.8628 H     69 HOH   0.0000 
208 O       -7.6942    11.7559     9.8467 O.3   70 HOH   0.0000 
209 H1      -6.7342    11.7559     9.8467 H     70 HOH   0.0000 
210 H2      -7.9845    12.4029    10.4937 H     70 HOH   0.0000 
211 O      -15.2280    16.9880    48.1543 O.3   71 HOH   0.0000 
212 H1     -14.2680    16.9880    48.1543 H     71 HOH   0.0000 
213 H2     -15.5183    17.6351    48.8014 H     71 HOH   0.0000 
214 O      -16.8773    30.1242    24.6327 O.3   72 HOH   0.0000 
215 H1     -15.9173    30.1242    24.6327 H     72 HOH   0.0000 
216 H2     -17.1676    30.7713    25.2797 H     72 HOH   0.0000 
217 O       -2.4445    16.2358    21.8904 O.3   73 HOH   0.0000 
218 H1      -1.4845    16.2358    21.8904 H     73 HOH   0.0000 
219 H2      -2.7348    16.8828    22.5374 H     73 HOH   0.0000 
220 O      -18.3304     8.8667    15.5435 O.3   74 HOH   0.0000 
221 H1     -17.3704     8.8667    15.5435 H     74 HOH   0.0000 
222 H2     -18.6207     9.5138    16.1905 H     74 HOH   0.0000 
223 O        2.1345    14.8003    40.9087 O.3   75 HOH  -0.8340 
224 H1       2.9215    14.2725    41.0437 H     75 HOH   0.4170 
225 H2       1.7036    14.3998    40.1536 H     75 HOH   0.4170 
226 O      -20.3227    15.6991    50.8885 O.3   76 HOH   0.0000 
227 H1     -19.3627    15.6991    50.8885 H     76 HOH   0.0000 
228 H2     -20.6129    16.3461    51.5355 H     76 HOH   0.0000 
229 O      -26.1796    12.8269    40.0744 O.3   77 HOH   0.0000 
230 H1     -25.2196    12.8269    40.0744 H     77 HOH   0.0000 
231 H2     -26.4698    13.4739    40.7215 H     77 HOH   0.0000 
232 O       -0.7457    14.2595    40.5213 O.3   78 HOH  -0.8340 
233 H1      -0.2443    14.9734    40.9152 H     78 HOH   0.4170 
234 H2      -0.9945    14.5890    39.6577 H     78 HOH   0.4170 
235 O       -5.8519    34.2296    32.0015 O.3   79 HOH   0.0000 
236 H1      -4.8919    34.2296    32.0015 H     79 HOH   0.0000 
237 H2      -6.1422    34.8766    32.6486 H     79 HOH   0.0000 
238 O      -23.6637    24.8365    22.6150 O.3   80 HOH   0.0000 
239 H1     -22.7037    24.8365    22.6150 H     80 HOH   0.0000 
240 H2     -23.9540    25.4836    23.2621 H     80 HOH   0.0000 
241 O        6.9963    20.9240    29.1863 O.3   81 HOH   0.0000 
242 H1       7.9563    20.9240    29.1863 H     81 HOH   0.0000 
243 H2       6.7060    21.5710    29.8334 H     81 HOH   0.0000 
244 O      -24.3004    20.4387    44.0752 O.3   82 HOH   0.0000 
245 H1     -23.3404    20.4387    44.0752 H     82 HOH   0.0000 
246 H2     -24.5907    21.0858    44.7222 H     82 HOH   0.0000 
247 O      -29.5403     5.0216    20.3861 O.3   83 HOH   0.0000 
248 H1     -28.5803     5.0216    20.3861 H     83 HOH   0.0000 
249 H2     -29.8305     5.6687    21.0331 H     83 HOH   0.0000 
250 O       -4.5610    29.9045    38.4205 O.3   84 HOH   0.0000 
251 H1      -3.6010    29.9045    38.4205 H     84 HOH   0.0000 
252 H2      -4.8512    30.5515    39.0675 H     84 HOH   0.0000 
253 O      -26.7970    14.9165    45.3890 O.3   85 HOH   0.0000 
254 H1     -25.8370    14.9165    45.3890 H     85 HOH   0.0000 
255 H2     -27.0873    15.5636    46.0360 H     85 HOH   0.0000 
256 O        3.9389    12.5791    42.1395 O.3   86 HOH  -0.8340 
257 H1       4.8365    12.3943    41.8632 H     86 HOH   0.4170 
258 H2       3.4656    11.7626    41.9793 H     86 HOH   0.4170 
259 O      -12.6814    27.3217    46.2307 O.3   87 HOH   0.0000 
260 H1     -11.7214    27.3217    46.2307 H     87 HOH   0.0000 
261 H2     -12.9717    27.9687    46.8778 H     87 HOH   0.0000 
262 O      -24.4725    25.2172    40.5512 O.3   88 HOH   0.0000 
263 H1     -23.5125    25.2172    40.5512 H     88 HOH   0.0000 
264 H2     -24.7628    25.8643    41.1982 H     88 HOH   0.0000 
265 O      -28.0258    18.0622    29.2855 O.3   89 HOH   0.0000 
266 H1     -27.0658    18.0622    29.2855 H     89 HOH   0.0000 
267 H2     -28.3160    18.7092    29.9325 H     89 HOH   0.0000 
@<TRIPOS>BOND
  1   1   2  1   
  2   1   3  1   
  3   4   5  1   
  4   4   6  1   
  5   7   8  1   
  6   7   9  1   
  7  10  11  1   
  8  10  12  1   
  9  13  14  1   
 10  13  15  1   
 11  16  17  1   
 12  16  18  1   
 13  19  20  1   
 14  19  21  1   
 15  22  23  1   
 16  22  24  1   
 17  25  26  1   
 18  25  27  1   
 19  28  29  1   
 20  28  30  1   
 21  31  32  1   
 22  31  33  1   
 23  34  35  1   
 24  34  36  1   
 25  37  38  1   
 26  37  39  1   
 27  40  41  1   
 28  40  42  1   
 29  43  44  1   
 30  43  45  1   
 31  46  47  1   
 32  46  48  1   
 33  49  50  1   
 34  49  51  1   
 35  52  53  1   
 36  52  54  1   
 37  55  56  1   
 38  55  57  1   
 39  58  59  1   
 40  58  60  1   
 41  61  62  1   
 42  61  63  1   
 43  64  65  1   
 44  64  66  1   
 45  67  68  1   
 46  67  69  1   
 47  70  71  1   
 48  70  72  1   
 49  73  74  1   
 50  73  75  1   
 51  76  77  1   
 52  76  78  1   
 53  79  80  1   
 54  79  81  1   
 55  82  83  1   
 56  82  84  1   
 57  85  86  1   
 58  85  87  1   
 59  88  89  1   
 60  88  90  1   
 61  91  92  1   
 62  91  93  1   
 63  94  95  1   
 64  94  96  1   
 65  97  98  1   
 66  97  99  1   
 67 100 101  1   
 68 100 102  1   
 69 103 104  1   
 70 103 105  1   
 71 106 107  1   
 72 106 108  1   
 73 109 110  1   
 74 109 111  1   
 75 112 113  1   
 76 112 114  1   
 77 115 116  1   
 78 115 117  1   
 79 118 119  1   
 80 118 120  1   
 81 121 122  1   
 82 121 123  1   
 83 124 125  1   
 84 124 126  1   
 85 127 128  1   
 86 127 129  1   
 87 130 131  1   
 88 130 132  1   
 89 133 134  1   
 90 133 135  1   
 91 136 137  1   
 92 136 138  1   
 93 139 140  1   
 94 139 141  1   
 95 142 143  1   
 96 142 144  1   
 97 145 146  1   
 98 145 147  1   
 99 148 149  1   
100 148 150  1   
101 151 152  1   
102 151 153  1   
103 154 155  1   
104 154 156  1   
105 157 158  1   
106 157 159  1   
107 160 161  1   
108 160 162  1   
109 163 164  1   
110 163 165  1   
111 166 167  1   
112 166 168  1   
113 169 170  1   
114 169 171  1   
115 172 173  1   
116 172 174  1   
117 175 176  1   
118 175 177  1   
119 178 179  1   
120 178 180  1   
121 181 182  1   
122 181 183  1   
123 184 185  1   
124 184 186  1   
125 187 188  1   
126 187 189  1   
127 190 191  1   
128 190 192  1   
129 193 194  1   
130 193 195  1   
131 196 197  1   
132 196 198  1   
133 199 200  1   
134 199 201  1   
135 202 203  1   
136 202 204  1   
137 205 206  1   
138 205 207  1   
139 208 209  1   
140 208 210  1   
141 211 212  1   
142 211 213  1   
143 214 215  1   
144 214 216  1   
145 217 218  1   
146 217 219  1   
147 220 221  1   
148 220 222  1   
149 223 224  1   
150 223 225  1   
151 226 227  1   
152 226 228  1   
153 229 230  1   
154 229 231  1   
155 232 233  1   
156 232 234  1   
157 235 236  1   
158 235 237  1   
159 238 239  1   
160 238 240  1   
161 241 242  1   
162 241 243  1   
163 244 245  1   
164 244 246  1   
165 247 248  1   
166 247 249  1   
167 250 251  1   
168 250 252  1   
169 253 254  1   
170 253 255  1   
171 256 257  1   
172 256 258  1   
173 259 260  1   
174 259 261  1   
175 262 263  1   
176 262 264  1   
177 265 266  1   
178 265 267  1   
@<TRIPOS>SUBSTRUCTURE
  1 HOH   1 GROUP 4 A **** 0
  2 HOH   4 GROUP 4 A **** 0
  3 HOH   7 GROUP 4 A **** 0
  4 HOH  10 GROUP 4 A **** 0
  5 HOH  13 GROUP 4 A **** 0
  6 HOH  16 GROUP 4 A **** 0
  7 HOH  19 GROUP 4 A **** 0
  8 HOH  22 GROUP 4 A **** 0
  9 HOH  25 GROUP 4 A **** 0
 10 HOH  28 GROUP 4 A **** 0
 11 HOH  31 GROUP 4 A **** 0
 12 HOH  34 GROUP 4 A **** 0
 13 HOH  37 GROUP 4 A **** 0
 14 HOH  40 GROUP 4 A **** 0
 15 HOH  43 GROUP 4 A **** 0
 16 HOH  46 GROUP 4 A **** 0
 17 HOH  49 GROUP 4 A **** 0
 18 HOH  52 GROUP 4 A **** 0
 19 HOH  55 GROUP 4 A **** 0
 20 HOH  58 GROUP 4 A **** 0
 21 HOH  61 GROUP 4 A **** 0
 22 HOH  64 GROUP 4 A **** 0
 23 HOH  67 GROUP 4 A **** 0
 24 HOH  70 GROUP 4 A **** 0
 25 HOH  73 GROUP 4 A **** 0
 26 HOH  76 GROUP 4 A **** 0
 27 HOH  79 GROUP 4 A **** 0
 28 HOH  82 GROUP 4 A **** 0
 29 HOH  85 GROUP 4 A **** 0
 30 HOH  88 GROUP 4 A **** 0
 31 HOH  91 GROUP 4 A **** 0
 32 HOH  94 GROUP 4 A **** 0
 33 HOH  97 GROUP 4 A **** 0
 34 HOH 100 GROUP 4 A **** 0
 35 HOH 103 GROUP 4 A **** 0
 36 HOH 106 GROUP 4 A **** 0
 37 HOH 109 GROUP 4 A **** 0
 38 HOH 112 GROUP 4 A **** 0
 39 HOH 115 GROUP 4 A **** 0
 40 HOH 118 GROUP 4 A **** 0
 41 HOH 121 GROUP 4 A **** 0
 42 HOH 124 GROUP 4 A **** 0
 43 HOH 127 GROUP 4 A **** 0
 44 HOH 130 GROUP 4 A **** 0
 45 HOH 133 GROUP 4 A **** 0
 46 HOH 136 GROUP 4 A **** 0
 47 HOH 139 GROUP 4 A **** 0
 48 HOH 142 GROUP 4 A **** 0
 49 HOH 145 GROUP 4 A **** 0
 50 HOH 148 GROUP 4 A **** 0
 51 HOH 151 GROUP 4 A **** 0
 52 HOH 154 GROUP 4 A **** 0
 53 HOH 157 GROUP 4 A **** 0
 54 HOH 160 GROUP 4 A **** 0
 55 HOH 163 GROUP 4 A **** 0
 56 HOH 166 GROUP 4 A **** 0
 57 HOH 169 GROUP 4 A **** 0
 58 HOH 172 GROUP 4 A **** 0
 59 HOH 175 GROUP 4 A **** 0
 60 HOH 178 GROUP 4 A **** 0
 61 HOH 181 GROUP 4 A **** 0
 62 HOH 184 GROUP 4 A **** 0
 63 HOH 187 GROUP 4 A **** 0
 64 HOH 190 GROUP 4 A **** 0
 65 HOH 193 GROUP 4 A **** 0
 66 HOH 196 GROUP 4 A **** 0
 67 HOH 199 GROUP 4 A **** 0
 68 HOH 202 GROUP 4 A **** 0
 69 HOH 205 GROUP 4 A **** 0
 70 HOH 208 GROUP 4 A **** 0
 71 HOH 211 GROUP 4 A **** 0
 72 HOH 214 GROUP 4 A **** 0
 73 HOH 217 GROUP 4 A **** 0
 74 HOH 220 GROUP 4 A **** 0
 75 HOH 223 GROUP 4 A **** 0
 76 HOH 226 GROUP 4 A **** 0
 77 HOH 229 GROUP 4 A **** 0
 78 HOH 232 GROUP 4 A **** 0
 79 HOH 235 GROUP 4 A **** 0
 80 HOH 238 GROUP 4 A **** 0
 81 HOH 241 GROUP 4 A **** 0
 82 HOH 244 GROUP 4 A **** 0
 83 HOH 247 GROUP 4 A **** 0
 84 HOH 250 GROUP 4 A **** 0
 85 HOH 253 GROUP 4 A **** 0
 86 HOH 256 GROUP 4 A **** 0
 87 HOH 259 GROUP 4 A **** 0
 88 HOH 262 GROUP 4 A **** 0
 89 HOH 265 GROUP 4 A **** 0

# MOE 2012.10 (io_trps.svl 2012.10)
