@<TRIPOS>MOLECULE
4zog.B
25 25 1 0 0 
SMALL
USER_CHARGES


@<TRIPOS>ATOM
  1 O1     -22.4894    22.7738    41.7446 O.3   1 MES  -0.5600 
  2 C2     -22.7515    22.7652    43.1338 C.3   1 MES   0.1200 
  3 C3     -22.4242    24.0915    43.8000 C.3   1 MES   0.3430 
  4 N4     -21.1044    24.5205    43.5077 N.4   1 MES  -0.9590 
  5 HN4    -20.5094    23.9606    43.9219 H     1 MES   0.4500 
  6 C5     -20.8399    24.5250    42.1091 C.3   1 MES   0.3430 
  7 C6     -21.1701    23.2001    41.4504 C.3   1 MES   0.1200 
  8 C7     -20.9082    25.8683    44.0058 C.3   1 MES   0.3430 
  9 C8     -20.7105    25.8690    45.5285 C.3   1 MES  -0.0548 
 10 S      -20.6105    27.5737    46.1014 S.o2  1 MES   1.3448 
 11 O1S    -20.8096    27.6151    47.6117 O.co2 1 MES  -0.8167 
 12 O2S    -21.7977    28.3596    45.6173 O.co2 1 MES  -0.8167 
 13 O3S    -19.3054    28.2004    45.6816 O.co2 1 MES  -0.8167 
 14 H21    -22.2248    22.0593    43.5542 H     1 MES   0.0800 
 15 H22    -23.7002    22.5584    43.2804 H     1 MES   0.0800 
 16 H31    -23.0610    24.7691    43.4888 H     1 MES   0.0800 
 17 H32    -22.5250    23.9943    44.7627 H     1 MES   0.0800 
 18 H51    -19.8928    24.7203    41.9672 H     1 MES   0.0800 
 19 H52    -21.3773    25.2339    41.6862 H     1 MES   0.0800 
 20 H61    -21.0756    23.2952    40.4767 H     1 MES   0.0800 
 21 H62    -20.5417    22.5246    41.7650 H     1 MES   0.0800 
 22 H71    -20.1226    26.2596    43.5821 H     1 MES   0.0800 
 23 H72    -21.6842    26.4139    43.7847 H     1 MES   0.0800 
 24 H81    -21.4751    25.4310    45.9486 H     1 MES   0.0800 
 25 H82    -19.8940    25.3918    45.7606 H     1 MES   0.0800 
@<TRIPOS>BOND
  1   1   2  1   
  2   1   7  1   
  3   2   3  1   
  4   2  14  1   
  5   2  15  1   
  6   3   4  1   
  7   3  16  1   
  8   3  17  1   
  9   4   5  1   
 10   4   6  1   
 11   4   8  1   
 12   6   7  1   
 13   6  18  1   
 14   6  19  1   
 15   7  20  1   
 16   7  21  1   
 17   8   9  1   
 18   8  22  1   
 19   8  23  1   
 20   9  10  1   
 21   9  24  1   
 22   9  25  1   
 23  10  11  ar  
 24  10  12  ar  
 25  10  13  ar  
@<TRIPOS>SUBSTRUCTURE
  1 MES   8 GROUP 4 B **** 0

# MOE 2012.10 (io_trps.svl 2012.10)
