@<TRIPOS>MOLECULE
4zog.B
62 66 1 0 0 
SMALL
USER_CHARGES


@<TRIPOS>ATOM
  1 N1      -3.8138    13.5790    48.8288 N.4   1 VX6  -0.9590 
  2 H1      -4.6019    13.6051    48.1977 H     1 VX6   0.4500 
  3 C2      -3.3973    14.9704    49.1022 C.3   1 VX6   0.3430 
  4 H21     -2.5860    14.9618    49.8301 H     1 VX6   0.0800 
  5 H22     -4.2450    15.5214    49.5095 H     1 VX6   0.0800 
  6 C3      -2.9157    15.6675    47.8266 C.3   1 VX6   0.2091 
  7 H31     -2.5419    16.6610    48.0742 H     1 VX6   0.0800 
  8 H32     -3.7453    15.7559    47.1252 H     1 VX6   0.0800 
  9 N4      -1.8392    14.8775    47.2151 N.pl3 1 VX6  -0.8382 
 10 C5      -2.2972    13.5134    46.9234 C.3   1 VX6   0.2091 
 11 H51     -1.4919    12.9492    46.4530 H     1 VX6   0.0800 
 12 H52     -3.1551    13.5506    46.2520 H     1 VX6   0.0800 
 13 C6      -2.6983    12.8407    48.2295 C.3   1 VX6   0.3430 
 14 H61     -3.0053    11.8137    48.0315 H     1 VX6   0.0800 
 15 H62     -1.8508    12.8408    48.9150 H     1 VX6   0.0800 
 16 C7      -4.2063    12.8991    50.0680 C.3   1 VX6   0.2630 
 17 H71     -5.0362    13.4345    50.5291 H     1 VX6   0.0800 
 18 H72     -3.3603    12.8791    50.7551 H     1 VX6   0.0800 
 19 H73     -4.5139    11.8784    49.8407 H     1 VX6   0.0800 
 20 C8      -1.3323    15.4717    46.0456 C.ar  1 VX6   0.4100 
 21 C9      -1.5042    16.8276    45.8398 C.ar  1 VX6  -0.1500 
 22 H9      -2.0405    17.4293    46.5586 H     1 VX6   0.1500 
 23 C10     -0.9732    17.4036    44.6886 C.ar  1 VX6   0.4100 
 24 N11     -0.3089    16.6414    43.7951 N.ar  1 VX6  -0.6200 
 25 C12     -0.1470    15.3092    44.0003 C.ar  1 VX6   0.7215 
 26 N13     -0.6572    14.7300    45.1256 N.ar  1 VX6  -0.6200 
 27 N14     -1.1356    18.7237    44.4811 N.pl3 1 VX6  -0.5840 
 28 H14     -1.8393    19.2102    45.0179 H     1 VX6   0.4000 
 29 C15     -0.4038    19.4320    43.5898 C.2   1 VX6  -0.0676 
 30 C17      0.4447    19.1425    42.5235 C.2   1 VX6  -0.1500 
 31 H17      0.7375    18.1759    42.1411 H     1 VX6   0.1500 
 32 C18      0.8208    20.3969    42.0737 C.2   1 VX6   0.1078 
 33 N19      0.2431    21.3701    42.8001 N.2   1 VX6  -0.7068 
 34 N20     -0.5463    20.7434    43.7677 N.pl3 1 VX6   0.2996 
 35 H20     -1.1154    21.1979    44.4674 H     1 VX6   0.2700 
 36 C21      1.7693    20.4510    40.9029 C.3   1 VX6  -0.0590 
 37 H211     2.0144    19.4371    40.5867 H     1 VX6   0.0800 
 38 H212     2.6812    20.9702    41.1977 H     1 VX6   0.0800 
 39 H213     1.2979    20.9849    40.0777 H     1 VX6   0.0800 
 40 S23      0.6952    14.3596    42.8542 S.3   1 VX6  -0.2030 
 41 C24      1.3702    15.4237    41.6859 C.ar  1 VX6   0.1015 
 42 C25      2.3655    16.3473    42.0091 C.ar  1 VX6  -0.1500 
 43 H25      2.7273    16.4066    43.0249 H     1 VX6   0.1500 
 44 C26      2.9032    17.2009    41.0315 C.ar  1 VX6  -0.1500 
 45 H26      3.6651    17.9120    41.3148 H     1 VX6   0.1500 
 46 C27      2.4762    17.1526    39.7000 C.ar  1 VX6   0.1170 
 47 C28      1.4842    16.2233    39.3854 C.ar  1 VX6  -0.1500 
 48 H28      1.1251    16.1585    38.3689 H     1 VX6   0.1500 
 49 C29      0.9442    15.3739    40.3562 C.ar  1 VX6  -0.1500 
 50 H29      0.1814    14.6641    40.0719 H     1 VX6   0.1500 
 51 N30      2.9673    17.9642    38.7041 N.am  1 VX6  -0.5470 
 52 H30      2.6220    17.7783    37.7733 H     1 VX6   0.3700 
 53 C31      3.8555    18.9815    38.8131 C.2   1 VX6   0.6300 
 54 O32      4.2449    19.4638    39.8671 O.2   1 VX6  -0.5700 
 55 C33      4.4214    19.5304    37.5223 C.3   1 VX6  -0.1000 
 56 H33      4.5583    18.6019    36.9680 H     1 VX6   0.1000 
 57 C34      3.8542    20.9125    37.2034 C.3   1 VX6  -0.2000 
 58 H341     3.0488    21.3239    37.8118 H     1 VX6   0.1000 
 59 H342     3.7190    21.2191    36.1662 H     1 VX6   0.1000 
 60 C35      5.2545    20.7879    37.7816 C.3   1 VX6  -0.2000 
 61 H351     6.1224    21.0044    37.1586 H     1 VX6   0.1000 
 62 H352     5.4522    21.1092    38.8043 H     1 VX6   0.1000 
@<TRIPOS>BOND
  1   1   2  1   
  2   1   3  1   
  3   1  13  1   
  4   1  16  1   
  5   3   4  1   
  6   3   5  1   
  7   3   6  1   
  8   6   7  1   
  9   6   8  1   
 10   6   9  1   
 11   9  10  1   
 12   9  20  1   
 13  10  11  1   
 14  10  12  1   
 15  10  13  1   
 16  13  14  1   
 17  13  15  1   
 18  16  17  1   
 19  16  18  1   
 20  16  19  1   
 21  20  21  ar  
 22  20  26  ar  
 23  21  22  1   
 24  21  23  ar  
 25  23  24  ar  
 26  23  27  1   
 27  24  25  ar  
 28  25  26  ar  
 29  25  40  1   
 30  27  28  1   
 31  27  29  1   
 32  29  30  2   
 33  29  34  1   
 34  30  31  1   
 35  30  32  1   
 36  32  33  2   
 37  32  36  1   
 38  33  34  1   
 39  34  35  1   
 40  36  37  1   
 41  36  38  1   
 42  36  39  1   
 43  40  41  1   
 44  41  42  ar  
 45  41  49  ar  
 46  42  43  1   
 47  42  44  ar  
 48  44  45  1   
 49  44  46  ar  
 50  46  47  ar  
 51  46  51  1   
 52  47  48  1   
 53  47  49  ar  
 54  49  50  1   
 55  51  52  1   
 56  51  53  am  
 57  53  54  2   
 58  53  55  1   
 59  55  56  1   
 60  55  57  1   
 61  55  60  1   
 62  57  58  1   
 63  57  59  1   
 64  57  60  1   
 65  60  61  1   
 66  60  62  1   
@<TRIPOS>SUBSTRUCTURE
  1 VX6  24 GROUP 4 B **** 0

# MOE 2012.10 (io_trps.svl 2012.10)
