@<TRIPOS>MOLECULE
4zog.B
123 82 41 0 0 
SMALL
USER_CHARGES


@<TRIPOS>ATOM
  1 O       -0.5299    20.2713    52.7873 O.3    1 HOH   0.0000 
  2 H1       0.4301    20.2713    52.7873 H      1 HOH   0.0000 
  3 H2      -0.8202    20.9183    53.4344 H      1 HOH   0.0000 
  4 O      -15.6558     0.1972    25.3359 O.3    2 HOH   0.0000 
  5 H1     -14.6958     0.1972    25.3359 H      2 HOH   0.0000 
  6 H2     -15.9461     0.8442    25.9829 H      2 HOH   0.0000 
  7 O       -6.5128     9.6741    33.7436 O.3    3 HOH   0.0000 
  8 H1      -5.5528     9.6741    33.7436 H      3 HOH   0.0000 
  9 H2      -6.8030    10.3212    34.3907 H      3 HOH   0.0000 
 10 O      -30.9364    19.9926    36.2266 O.3    4 HOH   0.0000 
 11 H1     -29.9764    19.9926    36.2266 H      4 HOH   0.0000 
 12 H2     -31.2267    20.6396    36.8737 H      4 HOH   0.0000 
 13 O      -13.9466     7.1712    49.9632 O.3    5 HOH   0.0000 
 14 H1     -12.9866     7.1712    49.9632 H      5 HOH   0.0000 
 15 H2     -14.2369     7.8182    50.6102 H      5 HOH   0.0000 
 16 O       -4.1497    29.0780    38.4037 O.3    6 HOH   0.0000 
 17 H1      -3.1897    29.0780    38.4037 H      6 HOH   0.0000 
 18 H2      -4.4400    29.7251    39.0508 H      6 HOH   0.0000 
 19 O      -22.4371    14.3321    18.6201 O.3    7 HOH   0.0000 
 20 H1     -21.4771    14.3321    18.6201 H      7 HOH   0.0000 
 21 H2     -22.7273    14.9791    19.2671 H      7 HOH   0.0000 
 22 O      -27.1354    17.3952    39.7585 O.3    8 HOH   0.0000 
 23 H1     -26.1754    17.3952    39.7585 H      8 HOH   0.0000 
 24 H2     -27.4257    18.0423    40.4055 H      8 HOH   0.0000 
 25 O       -9.4455     7.1471    22.5496 O.3    9 HOH   0.0000 
 26 H1      -8.4855     7.1471    22.5496 H      9 HOH   0.0000 
 27 H2      -9.7358     7.7941    23.1967 H      9 HOH   0.0000 
 28 O       -7.3164     6.0872    21.4226 O.3   10 HOH   0.0000 
 29 H1      -6.3564     6.0872    21.4226 H     10 HOH   0.0000 
 30 H2      -7.6067     6.7342    22.0696 H     10 HOH   0.0000 
 31 O       -7.1073    12.8140    44.7714 O.3   11 HOH  -0.8340 
 32 H1      -6.9462    13.7480    44.9054 H     11 HOH   0.4170 
 33 H2      -7.2766    12.7319    43.8329 H     11 HOH   0.4170 
 34 O      -10.8790    30.3088    28.3959 O.3   12 HOH   0.0000 
 35 H1      -9.9190    30.3088    28.3959 H     12 HOH   0.0000 
 36 H2     -11.1693    30.9559    29.0430 H     12 HOH   0.0000 
 37 O       -4.2955    -0.1322    18.4420 O.3   13 HOH   0.0000 
 38 H1      -3.3355    -0.1322    18.4420 H     13 HOH   0.0000 
 39 H2      -4.5858     0.5149    19.0891 H     13 HOH   0.0000 
 40 O      -18.9286     0.4317    14.0084 O.3   14 HOH   0.0000 
 41 H1     -17.9686     0.4317    14.0084 H     14 HOH   0.0000 
 42 H2     -19.2188     1.0788    14.6554 H     14 HOH   0.0000 
 43 O       -1.9717    29.7065    35.6653 O.3   15 HOH   0.0000 
 44 H1      -1.0117    29.7065    35.6653 H     15 HOH   0.0000 
 45 H2      -2.2620    30.3535    36.3123 H     15 HOH   0.0000 
 46 O      -24.9401    28.2927    23.9137 O.3   16 HOH   0.0000 
 47 H1     -23.9801    28.2927    23.9137 H     16 HOH   0.0000 
 48 H2     -25.2304    28.9398    24.5607 H     16 HOH   0.0000 
 49 O       -3.9297    15.4410    25.3905 O.3   17 HOH   0.0000 
 50 H1      -2.9697    15.4410    25.3905 H     17 HOH   0.0000 
 51 H2      -4.2200    16.0880    26.0375 H     17 HOH   0.0000 
 52 O      -16.2151    10.0088    12.9209 O.3   18 HOH   0.0000 
 53 H1     -15.2551    10.0088    12.9209 H     18 HOH   0.0000 
 54 H2     -16.5054    10.6559    13.5679 H     18 HOH   0.0000 
 55 O      -13.3423    20.0053    46.3145 O.3   19 HOH   0.0000 
 56 H1     -12.3823    20.0053    46.3145 H     19 HOH   0.0000 
 57 H2     -13.6326    20.6524    46.9615 H     19 HOH   0.0000 
 58 O      -14.4132    28.3430    17.3018 O.3   20 HOH   0.0000 
 59 H1     -13.4532    28.3430    17.3018 H     20 HOH   0.0000 
 60 H2     -14.7035    28.9901    17.9489 H     20 HOH   0.0000 
 61 O       -5.1642    12.6818    21.8784 O.3   21 HOH   0.0000 
 62 H1      -4.2042    12.6818    21.8784 H     21 HOH   0.0000 
 63 H2      -5.4545    13.3288    22.5255 H     21 HOH   0.0000 
 64 O      -13.1293     0.6097    33.6734 O.3   22 HOH   0.0000 
 65 H1     -12.1693     0.6097    33.6734 H     22 HOH   0.0000 
 66 H2     -13.4196     1.2567    34.3204 H     22 HOH   0.0000 
 67 O       -3.5647    22.6902    16.6230 O.3   23 HOH   0.0000 
 68 H1      -2.6047    22.6902    16.6230 H     23 HOH   0.0000 
 69 H2      -3.8550    23.3372    17.2701 H     23 HOH   0.0000 
 70 O      -17.8746     9.8253    17.6499 O.3   24 HOH   0.0000 
 71 H1     -16.9146     9.8253    17.6499 H     24 HOH   0.0000 
 72 H2     -18.1649    10.4724    18.2970 H     24 HOH   0.0000 
 73 O      -16.9414     7.4881    43.6595 O.3   25 HOH   0.0000 
 74 H1     -15.9814     7.4881    43.6595 H     25 HOH   0.0000 
 75 H2     -17.2317     8.1352    44.3065 H     25 HOH   0.0000 
 76 O      -15.1108    23.8730    14.7316 O.3   26 HOH   0.0000 
 77 H1     -14.1508    23.8730    14.7316 H     26 HOH   0.0000 
 78 H2     -15.4011    24.5201    15.3786 H     26 HOH   0.0000 
 79 O      -24.1951    19.5868    44.2656 O.3   27 HOH  -0.8340 
 80 H1     -24.4537    18.8639    43.6940 H     27 HOH   0.4170 
 81 H2     -24.5428    19.3493    45.1252 H     27 HOH   0.4170 
 82 O      -14.5165     6.2229    22.3657 O.3   28 HOH   0.0000 
 83 H1     -13.5565     6.2229    22.3657 H     28 HOH   0.0000 
 84 H2     -14.8068     6.8699    23.0128 H     28 HOH   0.0000 
 85 O      -11.5949    27.2399    45.8350 O.3   29 HOH   0.0000 
 86 H1     -10.6349    27.2399    45.8350 H     29 HOH   0.0000 
 87 H2     -11.8851    27.8869    46.4820 H     29 HOH   0.0000 
 88 O       -8.7920    -2.8902    30.7714 O.3   30 HOH   0.0000 
 89 H1      -7.8320    -2.8902    30.7714 H     30 HOH   0.0000 
 90 H2      -9.0823    -2.2431    31.4184 H     30 HOH   0.0000 
 91 O       -3.5864    11.5862    27.9101 O.3   31 HOH   0.0000 
 92 H1      -2.6264    11.5862    27.9101 H     31 HOH   0.0000 
 93 H2      -3.8767    12.2333    28.5571 H     31 HOH   0.0000 
 94 O      -32.8677    26.7737    33.7118 O.3   32 HOH   0.0000 
 95 H1     -31.9077    26.7737    33.7118 H     32 HOH   0.0000 
 96 H2     -33.1580    27.4207    34.3588 H     32 HOH   0.0000 
 97 O      -28.2107    14.3972    39.8973 O.3   33 HOH   0.0000 
 98 H1     -27.2507    14.3972    39.8973 H     33 HOH   0.0000 
 99 H2     -28.5010    15.0443    40.5444 H     33 HOH   0.0000 
100 O        5.2848    19.8174    12.1726 O.3   34 HOH   0.0000 
101 H1       6.2448    19.8174    12.1726 H     34 HOH   0.0000 
102 H2       4.9945    20.4645    12.8197 H     34 HOH   0.0000 
103 O       -8.2756    29.7667    40.4297 O.3   35 HOH   0.0000 
104 H1      -7.3156    29.7667    40.4297 H     35 HOH   0.0000 
105 H2      -8.5658    30.4137    41.0768 H     35 HOH   0.0000 
106 O       -3.6184    22.4433     8.9982 O.3   36 HOH   0.0000 
107 H1      -2.6584    22.4433     8.9982 H     36 HOH   0.0000 
108 H2      -3.9087    23.0904     9.6453 H     36 HOH   0.0000 
109 O       25.6922    27.0886    40.4961 O.3   37 HOH   0.0000 
110 H1      26.6522    27.0886    40.4961 H     37 HOH   0.0000 
111 H2      25.4020    27.7356    41.1432 H     37 HOH   0.0000 
112 O      -21.0323     7.9627    47.4645 O.3   38 HOH   0.0000 
113 H1     -20.0723     7.9627    47.4645 H     38 HOH   0.0000 
114 H2     -21.3226     8.6098    48.1115 H     38 HOH   0.0000 
115 O      -16.6549    29.6180    44.0776 O.3   39 HOH  -0.8340 
116 H1     -17.5137    29.2860    44.3391 H     39 HOH   0.4170 
117 H2     -16.7968    30.5510    43.9173 H     39 HOH   0.4170 
118 O      -17.8118     8.8094    15.1706 O.3   40 HOH   0.0000 
119 H1     -16.8518     8.8094    15.1706 H     40 HOH   0.0000 
120 H2     -18.1021     9.4565    15.8177 H     40 HOH   0.0000 
121 O      -16.5243    29.8628    18.0498 O.3   41 HOH   0.0000 
122 H1     -15.5643    29.8628    18.0498 H     41 HOH   0.0000 
123 H2     -16.8146    30.5099    18.6968 H     41 HOH   0.0000 
@<TRIPOS>BOND
  1   1   2  1   
  2   1   3  1   
  3   4   5  1   
  4   4   6  1   
  5   7   8  1   
  6   7   9  1   
  7  10  11  1   
  8  10  12  1   
  9  13  14  1   
 10  13  15  1   
 11  16  17  1   
 12  16  18  1   
 13  19  20  1   
 14  19  21  1   
 15  22  23  1   
 16  22  24  1   
 17  25  26  1   
 18  25  27  1   
 19  28  29  1   
 20  28  30  1   
 21  31  32  1   
 22  31  33  1   
 23  34  35  1   
 24  34  36  1   
 25  37  38  1   
 26  37  39  1   
 27  40  41  1   
 28  40  42  1   
 29  43  44  1   
 30  43  45  1   
 31  46  47  1   
 32  46  48  1   
 33  49  50  1   
 34  49  51  1   
 35  52  53  1   
 36  52  54  1   
 37  55  56  1   
 38  55  57  1   
 39  58  59  1   
 40  58  60  1   
 41  61  62  1   
 42  61  63  1   
 43  64  65  1   
 44  64  66  1   
 45  67  68  1   
 46  67  69  1   
 47  70  71  1   
 48  70  72  1   
 49  73  74  1   
 50  73  75  1   
 51  76  77  1   
 52  76  78  1   
 53  79  80  1   
 54  79  81  1   
 55  82  83  1   
 56  82  84  1   
 57  85  86  1   
 58  85  87  1   
 59  88  89  1   
 60  88  90  1   
 61  91  92  1   
 62  91  93  1   
 63  94  95  1   
 64  94  96  1   
 65  97  98  1   
 66  97  99  1   
 67 100 101  1   
 68 100 102  1   
 69 103 104  1   
 70 103 105  1   
 71 106 107  1   
 72 106 108  1   
 73 109 110  1   
 74 109 111  1   
 75 112 113  1   
 76 112 114  1   
 77 115 116  1   
 78 115 117  1   
 79 118 119  1   
 80 118 120  1   
 81 121 122  1   
 82 121 123  1   
@<TRIPOS>SUBSTRUCTURE
  1 HOH   1 GROUP 4 B **** 0
  2 HOH   4 GROUP 4 B **** 0
  3 HOH   7 GROUP 4 B **** 0
  4 HOH  10 GROUP 4 B **** 0
  5 HOH  13 GROUP 4 B **** 0
  6 HOH  16 GROUP 4 B **** 0
  7 HOH  19 GROUP 4 B **** 0
  8 HOH  22 GROUP 4 B **** 0
  9 HOH  25 GROUP 4 B **** 0
 10 HOH  28 GROUP 4 B **** 0
 11 HOH  31 GROUP 4 B **** 0
 12 HOH  34 GROUP 4 B **** 0
 13 HOH  37 GROUP 4 B **** 0
 14 HOH  40 GROUP 4 B **** 0
 15 HOH  43 GROUP 4 B **** 0
 16 HOH  46 GROUP 4 B **** 0
 17 HOH  49 GROUP 4 B **** 0
 18 HOH  52 GROUP 4 B **** 0
 19 HOH  55 GROUP 4 B **** 0
 20 HOH  58 GROUP 4 B **** 0
 21 HOH  61 GROUP 4 B **** 0
 22 HOH  64 GROUP 4 B **** 0
 23 HOH  67 GROUP 4 B **** 0
 24 HOH  70 GROUP 4 B **** 0
 25 HOH  73 GROUP 4 B **** 0
 26 HOH  76 GROUP 4 B **** 0
 27 HOH  79 GROUP 4 B **** 0
 28 HOH  82 GROUP 4 B **** 0
 29 HOH  85 GROUP 4 B **** 0
 30 HOH  88 GROUP 4 B **** 0
 31 HOH  91 GROUP 4 B **** 0
 32 HOH  94 GROUP 4 B **** 0
 33 HOH  97 GROUP 4 B **** 0
 34 HOH 100 GROUP 4 B **** 0
 35 HOH 103 GROUP 4 B **** 0
 36 HOH 106 GROUP 4 B **** 0
 37 HOH 109 GROUP 4 B **** 0
 38 HOH 112 GROUP 4 B **** 0
 39 HOH 115 GROUP 4 B **** 0
 40 HOH 118 GROUP 4 B **** 0
 41 HOH 121 GROUP 4 B **** 0

# MOE 2012.10 (io_trps.svl 2012.10)
