@<TRIPOS>MOLECULE
2hyy.C
69 73 1 0 0 
SMALL
USER_CHARGES


@<TRIPOS>ATOM
  1 C1       0.1961    17.8585    44.4056 C.ar  1 STI  -0.1500 
  2 H1       0.0397    16.8875    44.8518 H     1 STI   0.1500 
  3 C6       0.9241    18.0004    43.2164 C.ar  1 STI  -0.1500 
  4 H6       1.3737    17.1380    42.7468 H     1 STI   0.1500 
  5 C5       1.0666    19.2988    42.6295 C.ar  1 STI   0.0000 
  6 C4       0.5253    20.4093    43.2740 C.ar  1 STI   0.1600 
  7 H4       0.6533    21.3951    42.8517 H     1 STI   0.1500 
  8 N3      -0.1834    20.2463    44.4673 N.ar  1 STI  -0.6200 
  9 C2      -0.3145    19.0020    44.9879 C.ar  1 STI   0.1600 
 10 H2      -0.8531    18.8979    45.9182 H     1 STI   0.1500 
 11 C7       1.8483    19.5607    41.3586 C.ar  1 STI   0.3100 
 12 C12      2.6106    18.6148    40.7992 C.ar  1 STI  -0.1500 
 13 H12      2.6653    17.6128    41.1985 H     1 STI   0.1500 
 14 C11      3.3436    19.0083    39.6481 C.ar  1 STI   0.1600 
 15 H11      3.9863    18.2998    39.1467 H     1 STI   0.1500 
 16 N10      3.2348    20.2651    39.1851 N.ar  1 STI  -0.6200 
 17 C9       2.4499    21.1644    39.8090 C.ar  1 STI   0.7200 
 18 N8       1.7748    20.8582    40.9268 N.ar  1 STI  -0.6200 
 19 N13      2.2617    22.4603    39.3825 N.pl3 1 STI  -0.6000 
 20 H13      1.5334    23.0338    39.7833 H     1 STI   0.4000 
 21 C14      3.0889    22.9603    38.3956 C.ar  1 STI   0.1000 
 22 C19      4.3967    23.4618    38.6173 C.ar  1 STI  -0.1435 
 23 C18      5.0539    23.9700    37.4898 C.ar  1 STI  -0.1500 
 24 H18      6.0474    24.3751    37.6138 H     1 STI   0.1500 
 25 C17      4.4792    23.9790    36.1935 C.ar  1 STI  -0.1500 
 26 H17      5.0479    24.3796    35.3673 H     1 STI   0.1500 
 27 C16      3.2133    23.4891    35.9634 C.ar  1 STI   0.1170 
 28 C15      2.5414    22.9991    37.0836 C.ar  1 STI  -0.1500 
 29 H15      1.5381    22.6242    36.9452 H     1 STI   0.1500 
 30 N21      2.7273    23.5553    34.5922 N.am  1 STI  -0.5470 
 31 H21      3.4239    23.6702    33.8699 H     1 STI   0.3700 
 32 C22      1.4393    23.4789    34.1860 C.2   1 STI   0.5438 
 33 C23      0.9903    23.9827    32.8576 C.ar  1 STI   0.0862 
 34 C25     -0.3748    23.9832    32.5179 C.ar  1 STI  -0.1500 
 35 H25     -1.0885    23.6550    33.2590 H     1 STI   0.1500 
 36 C26     -0.8603    24.3939    31.2484 C.ar  1 STI  -0.1500 
 37 H26     -1.9184    24.3673    31.0335 H     1 STI   0.1500 
 38 C27      0.0427    24.8312    30.2845 C.ar  1 STI  -0.1435 
 39 C28      1.3956    24.7944    30.5827 C.ar  1 STI  -0.1500 
 40 H28      2.1037    25.1008    29.8271 H     1 STI   0.1500 
 41 C29      1.8844    24.3681    31.8464 C.ar  1 STI  -0.1500 
 42 H29      2.9483    24.3404    32.0300 H     1 STI   0.1500 
 43 C46     -0.4499    25.2719    28.9316 C.3   1 STI   0.2535 
 44 H461    -0.3240    26.3514    28.8484 H     1 STI   0.0800 
 45 H462    -1.5074    25.0218    28.8462 H     1 STI   0.0800 
 46 N48      0.2688    24.6340    27.8434 N.3   1 STI  -0.8100 
 47 C53      0.1453    23.1750    27.9349 C.3   1 STI   0.1100 
 48 H531    -0.9029    22.8913    27.8412 H     1 STI   0.0800 
 49 H532     0.5288    22.8363    28.8973 H     1 STI   0.0800 
 50 C52      0.9782    22.5094    26.7711 C.3   1 STI   0.3430 
 51 H521     0.7755    21.4389    26.7367 H     1 STI   0.0800 
 52 H522     2.0429    22.6724    26.9384 H     1 STI   0.0800 
 53 N51      0.5692    23.1373    25.5004 N.4   1 STI  -0.9590 
 54 H51     -0.4033    22.9857    25.2737 H     1 STI   0.4500 
 55 C54      1.4997    22.5494    24.5588 C.3   1 STI   0.2630 
 56 H541     1.3613    21.4684    24.5382 H     1 STI   0.0800 
 57 H542     2.5203    22.7793    24.8649 H     1 STI   0.0800 
 58 H543     1.3178    22.9581    23.5648 H     1 STI   0.0800 
 59 C50      0.7339    24.5565    25.5432 C.3   1 STI   0.3430 
 60 H501     0.5401    24.9827    24.5589 H     1 STI   0.0800 
 61 H502     1.7496    24.8033    25.8523 H     1 STI   0.0800 
 62 C49     -0.2764    25.1143    26.5653 C.3   1 STI   0.1100 
 63 H491    -0.3079    26.2034    26.5346 H     1 STI   0.0800 
 64 H492    -1.2759    24.7168    26.3889 H     1 STI   0.0800 
 65 O29      0.6011    22.9637    34.8655 O.2   1 STI  -0.5700 
 66 C20      5.1277    23.5064    39.9709 C.3   1 STI  -0.0965 
 67 H201     4.4891    23.0772    40.7430 H     1 STI   0.0800 
 68 H202     5.3595    24.5408    40.2248 H     1 STI   0.0800 
 69 H203     6.0522    22.9329    39.9037 H     1 STI   0.0800 
@<TRIPOS>BOND
  1   1   2  1   
  2   1   3  ar  
  3   1   9  ar  
  4   3   4  1   
  5   3   5  ar  
  6   5   6  ar  
  7   5  11  1   
  8   6   7  1   
  9   6   8  ar  
 10   8   9  ar  
 11   9  10  1   
 12  11  12  ar  
 13  11  18  ar  
 14  12  13  1   
 15  12  14  ar  
 16  14  15  1   
 17  14  16  ar  
 18  16  17  ar  
 19  17  18  ar  
 20  17  19  1   
 21  19  20  1   
 22  19  21  1   
 23  21  22  ar  
 24  21  28  ar  
 25  22  23  ar  
 26  22  66  1   
 27  23  24  1   
 28  23  25  ar  
 29  25  26  1   
 30  25  27  ar  
 31  27  28  ar  
 32  27  30  1   
 33  28  29  1   
 34  30  31  1   
 35  30  32  am  
 36  32  33  1   
 37  32  65  2   
 38  33  34  ar  
 39  33  41  ar  
 40  34  35  1   
 41  34  36  ar  
 42  36  37  1   
 43  36  38  ar  
 44  38  39  ar  
 45  38  43  1   
 46  39  40  1   
 47  39  41  ar  
 48  41  42  1   
 49  43  44  1   
 50  43  45  1   
 51  43  46  1   
 52  46  47  1   
 53  46  62  1   
 54  47  48  1   
 55  47  49  1   
 56  47  50  1   
 57  50  51  1   
 58  50  52  1   
 59  50  53  1   
 60  53  54  1   
 61  53  55  1   
 62  53  59  1   
 63  55  56  1   
 64  55  57  1   
 65  55  58  1   
 66  59  60  1   
 67  59  61  1   
 68  59  62  1   
 69  62  63  1   
 70  62  64  1   
 71  66  67  1   
 72  66  68  1   
 73  66  69  1   
@<TRIPOS>SUBSTRUCTURE
  1 STI  65 GROUP 4 C **** 0

# MOE 2012.10 (io_trps.svl 2012.10)
