@<TRIPOS>MOLECULE
2hyy.C
171 114 57 0 0 
SMALL
USER_CHARGES


@<TRIPOS>ATOM
  1 O      -12.1835     4.4822    46.1801 O.3    1 HOH   0.0000 
  2 H1     -11.2235     4.4822    46.1801 H      1 HOH   0.0000 
  3 H2     -12.4738     5.1293    46.8271 H      1 HOH   0.0000 
  4 O       -5.1391    16.4182    25.1463 O.3    2 HOH   0.0000 
  5 H1      -4.1791    16.4182    25.1463 H      2 HOH   0.0000 
  6 H2      -5.4294    17.0653    25.7933 H      2 HOH   0.0000 
  7 O       -6.9445     6.1073    33.7246 O.3    3 HOH   0.0000 
  8 H1      -5.9845     6.1073    33.7246 H      3 HOH   0.0000 
  9 H2      -7.2348     6.7544    34.3716 H      3 HOH   0.0000 
 10 O       -4.7706    29.8364    35.7338 O.3    4 HOH   0.0000 
 11 H1      -3.8106    29.8364    35.7338 H      4 HOH   0.0000 
 12 H2      -5.0609    30.4835    36.3809 H      4 HOH   0.0000 
 13 O       -2.7735     1.5407    17.8378 O.3    5 HOH   0.0000 
 14 H1      -1.8135     1.5407    17.8378 H      5 HOH   0.0000 
 15 H2      -3.0638     2.1877    18.4849 H      5 HOH   0.0000 
 16 O      -14.2665     5.7157    13.3984 O.3    6 HOH   0.0000 
 17 H1     -13.3065     5.7157    13.3984 H      6 HOH   0.0000 
 18 H2     -14.5567     6.3628    14.0454 H      6 HOH   0.0000 
 19 O       -4.1000    17.4368    21.4729 O.3    7 HOH   0.0000 
 20 H1      -3.1400    17.4368    21.4729 H      7 HOH   0.0000 
 21 H2      -4.3903    18.0839    22.1199 H      7 HOH   0.0000 
 22 O      -20.5642     3.8250    47.1914 O.3    8 HOH   0.0000 
 23 H1     -19.6042     3.8250    47.1914 H      8 HOH   0.0000 
 24 H2     -20.8545     4.4721    47.8384 H      8 HOH   0.0000 
 25 O       -2.1347     4.9718    26.4137 O.3    9 HOH   0.0000 
 26 H1      -1.1747     4.9718    26.4137 H      9 HOH   0.0000 
 27 H2      -2.4249     5.6189    27.0607 H      9 HOH   0.0000 
 28 O       -3.4770    12.6025    26.9248 O.3   10 HOH   0.0000 
 29 H1      -2.5170    12.6025    26.9248 H     10 HOH   0.0000 
 30 H2      -3.7673    13.2496    27.5719 H     10 HOH   0.0000 
 31 O        4.7680    20.5850    36.8780 O.3   11 HOH  -0.8340 
 32 H1       4.4240    20.8393    36.0217 H     11 HOH   0.4170 
 33 H2       4.2345    21.0727    37.5055 H     11 HOH   0.4170 
 34 O      -18.1119     5.8053    15.5533 O.3   12 HOH   0.0000 
 35 H1     -17.1519     5.8053    15.5533 H     12 HOH   0.0000 
 36 H2     -18.4021     6.4523    16.2004 H     12 HOH   0.0000 
 37 O       -5.8242    23.3280    47.4136 O.3   13 HOH   0.0000 
 38 H1      -4.8642    23.3280    47.4136 H     13 HOH   0.0000 
 39 H2      -6.1144    23.9751    48.0606 H     13 HOH   0.0000 
 40 O        6.0335     9.4864    15.9174 O.3   14 HOH   0.0000 
 41 H1       6.9935     9.4864    15.9174 H     14 HOH   0.0000 
 42 H2       5.7432    10.1335    16.5645 H     14 HOH   0.0000 
 43 O      -13.4345     5.3585    22.4995 O.3   15 HOH   0.0000 
 44 H1     -12.4745     5.3585    22.4995 H     15 HOH   0.0000 
 45 H2     -13.7248     6.0056    23.1465 H     15 HOH   0.0000 
 46 O        8.7450     3.9244    33.1507 O.3   16 HOH   0.0000 
 47 H1       9.7050     3.9244    33.1507 H     16 HOH   0.0000 
 48 H2       8.4547     4.5715    33.7978 H     16 HOH   0.0000 
 49 O       -8.9979     6.8726    22.3900 O.3   17 HOH   0.0000 
 50 H1      -8.0379     6.8726    22.3900 H     17 HOH   0.0000 
 51 H2      -9.2882     7.5196    23.0371 H     17 HOH   0.0000 
 52 O       -6.3892    29.1823    39.2440 O.3   18 HOH   0.0000 
 53 H1      -5.4292    29.1823    39.2440 H     18 HOH   0.0000 
 54 H2      -6.6795    29.8293    39.8911 H     18 HOH   0.0000 
 55 O       -6.3784    23.9655    17.1731 O.3   19 HOH   0.0000 
 56 H1      -5.4184    23.9655    17.1731 H     19 HOH   0.0000 
 57 H2      -6.6687    24.6126    17.8201 H     19 HOH   0.0000 
 58 O       -8.7841    -0.3483    34.8254 O.3   20 HOH   0.0000 
 59 H1      -7.8241    -0.3483    34.8254 H     20 HOH   0.0000 
 60 H2      -9.0743     0.2988    35.4725 H     20 HOH   0.0000 
 61 O       -3.9113    -0.3014    15.0968 O.3   21 HOH   0.0000 
 62 H1      -2.9513    -0.3014    15.0968 H     21 HOH   0.0000 
 63 H2      -4.2016     0.3457    15.7438 H     21 HOH   0.0000 
 64 O        8.2624    36.3226    55.8134 O.3   22 HOH   0.0000 
 65 H1       9.2224    36.3226    55.8134 H     22 HOH   0.0000 
 66 H2       7.9721    36.9696    56.4604 H     22 HOH   0.0000 
 67 O        0.0612    12.3129    37.8886 O.3   23 HOH   0.0000 
 68 H1       1.0212    12.3129    37.8886 H     23 HOH   0.0000 
 69 H2      -0.2291    12.9599    38.5356 H     23 HOH   0.0000 
 70 O      -20.0043    12.9307    51.8819 O.3   24 HOH   0.0000 
 71 H1     -19.0443    12.9307    51.8819 H     24 HOH   0.0000 
 72 H2     -20.2946    13.5777    52.5290 H     24 HOH   0.0000 
 73 O        9.4398     2.7205    16.1717 O.3   25 HOH   0.0000 
 74 H1      10.3998     2.7205    16.1717 H     25 HOH   0.0000 
 75 H2       9.1496     3.3676    16.8188 H     25 HOH   0.0000 
 76 O      -14.4462    25.7050    39.8682 O.3   26 HOH   0.0000 
 77 H1     -13.4862    25.7050    39.8682 H     26 HOH   0.0000 
 78 H2     -14.7365    26.3520    40.5152 H     26 HOH   0.0000 
 79 O       -0.7050    30.0510    34.9093 O.3   27 HOH   0.0000 
 80 H1       0.2550    30.0510    34.9093 H     27 HOH   0.0000 
 81 H2      -0.9952    30.6981    35.5564 H     27 HOH   0.0000 
 82 O      -21.9592     7.3232    45.0189 O.3   28 HOH   0.0000 
 83 H1     -20.9992     7.3232    45.0189 H     28 HOH   0.0000 
 84 H2     -22.2495     7.9703    45.6659 H     28 HOH   0.0000 
 85 O       -1.0458     2.6611    16.7992 O.3   29 HOH   0.0000 
 86 H1      -0.0858     2.6611    16.7992 H     29 HOH   0.0000 
 87 H2      -1.3361     3.3082    17.4462 H     29 HOH   0.0000 
 88 O       -4.8657     9.6635    33.4230 O.3   30 HOH   0.0000 
 89 H1      -3.9057     9.6635    33.4230 H     30 HOH   0.0000 
 90 H2      -5.1560    10.3105    34.0701 H     30 HOH   0.0000 
 91 O        1.2428    18.8084    26.6662 O.3   31 HOH  -0.8340 
 92 H1       1.4972    19.0489    27.5571 H     31 HOH   0.4170 
 93 H2       0.2938    18.9316    26.6461 H     31 HOH   0.4170 
 94 O      -11.4686     3.0071    40.5509 O.3   32 HOH   0.0000 
 95 H1     -10.5086     3.0071    40.5509 H     32 HOH   0.0000 
 96 H2     -11.7589     3.6541    41.1979 H     32 HOH   0.0000 
 97 O        1.9541    15.7381    30.2061 O.3   33 HOH   0.0000 
 98 H1       2.9141    15.7381    30.2061 H     33 HOH   0.0000 
 99 H2       1.6638    16.3851    30.8531 H     33 HOH   0.0000 
100 O       -3.1247     7.6927    33.1215 O.3   34 HOH   0.0000 
101 H1      -2.1647     7.6927    33.1215 H     34 HOH   0.0000 
102 H2      -3.4150     8.3397    33.7685 H     34 HOH   0.0000 
103 O      -24.4921     8.7211    46.6292 O.3   35 HOH   0.0000 
104 H1     -23.5321     8.7211    46.6292 H     35 HOH   0.0000 
105 H2     -24.7824     9.3682    47.2762 H     35 HOH   0.0000 
106 O        4.5182    21.1742    34.3960 O.3   36 HOH  -0.8340 
107 H1       4.7659    22.0828    34.2244 H     36 HOH   0.4170 
108 H2       3.7571    21.0231    33.8355 H     36 HOH   0.4170 
109 O       -4.5888     5.4663    33.6487 O.3   37 HOH   0.0000 
110 H1      -3.6288     5.4663    33.6487 H     37 HOH   0.0000 
111 H2      -4.8791     6.1134    34.2958 H     37 HOH   0.0000 
112 O       -2.6646     4.2575    35.6030 O.3   38 HOH   0.0000 
113 H1      -1.7046     4.2575    35.6030 H     38 HOH   0.0000 
114 H2      -2.9548     4.9046    36.2501 H     38 HOH   0.0000 
115 O       15.2770    25.7515    51.3424 O.3   39 HOH   0.0000 
116 H1      16.2370    25.7515    51.3424 H     39 HOH   0.0000 
117 H2      14.9867    26.3985    51.9895 H     39 HOH   0.0000 
118 O      -13.2749     4.7383    43.7457 O.3   40 HOH   0.0000 
119 H1     -12.3149     4.7383    43.7457 H     40 HOH   0.0000 
120 H2     -13.5652     5.3853    44.3928 H     40 HOH   0.0000 
121 O        4.1756     2.4038    30.1441 O.3   41 HOH   0.0000 
122 H1       5.1356     2.4038    30.1441 H     41 HOH   0.0000 
123 H2       3.8854     3.0509    30.7912 H     41 HOH   0.0000 
124 O       -0.3278    13.8715    44.0187 O.3   42 HOH  -0.8340 
125 H1      -0.6203    12.9611    43.9754 H     42 HOH   0.4170 
126 H2      -0.0240    14.0685    43.1326 H     42 HOH   0.4170 
127 O        7.8537    38.7215    31.7459 O.3   43 HOH   0.0000 
128 H1       8.8137    38.7215    31.7459 H     43 HOH   0.0000 
129 H2       7.5634    39.3686    32.3930 H     43 HOH   0.0000 
130 O        0.4781     4.4598    25.2558 O.3   44 HOH   0.0000 
131 H1       1.4381     4.4598    25.2558 H     44 HOH   0.0000 
132 H2       0.1878     5.1069    25.9029 H     44 HOH   0.0000 
133 O       -8.0774    -6.0493    11.4261 O.3   45 HOH   0.0000 
134 H1      -7.1174    -6.0493    11.4261 H     45 HOH   0.0000 
135 H2      -8.3677    -5.4022    12.0731 H     45 HOH   0.0000 
136 O        9.5426    22.4598    30.5286 O.3   46 HOH   0.0000 
137 H1      10.5026    22.4598    30.5286 H     46 HOH   0.0000 
138 H2       9.2523    23.1069    31.1757 H     46 HOH   0.0000 
139 O       -7.8634    24.3425    47.2499 O.3   47 HOH   0.0000 
140 H1      -6.9034    24.3425    47.2499 H     47 HOH   0.0000 
141 H2      -8.1537    24.9896    47.8969 H     47 HOH   0.0000 
142 O       11.2033     6.2769    19.7790 O.3   48 HOH   0.0000 
143 H1      12.1633     6.2769    19.7790 H     48 HOH   0.0000 
144 H2      10.9131     6.9239    20.4261 H     48 HOH   0.0000 
145 O       -0.3815    25.7301    22.2603 O.3   49 HOH  -0.8340 
146 H1       0.1763    26.5066    22.2132 H     49 HOH   0.4170 
147 H2      -0.1955    25.2517    21.4524 H     49 HOH   0.4170 
148 O      -13.1507    -1.1067    25.5946 O.3   50 HOH   0.0000 
149 H1     -12.1907    -1.1067    25.5946 H     50 HOH   0.0000 
150 H2     -13.4409    -0.4596    26.2416 H     50 HOH   0.0000 
151 O      -13.1336    23.2460    18.9613 O.3   51 HOH   0.0000 
152 H1     -12.1736    23.2460    18.9613 H     51 HOH   0.0000 
153 H2     -13.4238    23.8930    19.6084 H     51 HOH   0.0000 
154 O        9.2250    37.6074    45.8714 O.3   52 HOH   0.0000 
155 H1      10.1850    37.6074    45.8714 H     52 HOH   0.0000 
156 H2       8.9347    38.2544    46.5185 H     52 HOH   0.0000 
157 O      -17.5083     6.8351    11.4430 O.3   53 HOH   0.0000 
158 H1     -16.5483     6.8351    11.4430 H     53 HOH   0.0000 
159 H2     -17.7986     7.4822    12.0901 H     53 HOH   0.0000 
160 O       -1.6168     7.7386    45.6162 O.3   54 HOH   0.0000 
161 H1      -0.6568     7.7386    45.6162 H     54 HOH   0.0000 
162 H2      -1.9070     8.3856    46.2632 H     54 HOH   0.0000 
163 O       -6.3110    13.3664    21.8194 O.3   55 HOH   0.0000 
164 H1      -5.3510    13.3664    21.8194 H     55 HOH   0.0000 
165 H2      -6.6012    14.0134    22.4664 H     55 HOH   0.0000 
166 O       -2.3746    31.2500    19.3622 O.3   56 HOH   0.0000 
167 H1      -1.4146    31.2500    19.3622 H     56 HOH   0.0000 
168 H2      -2.6649    31.8971    20.0092 H     56 HOH   0.0000 
169 O      -22.8860    11.4881    20.2478 O.3   57 HOH   0.0000 
170 H1     -21.9260    11.4881    20.2478 H     57 HOH   0.0000 
171 H2     -23.1762    12.1352    20.8948 H     57 HOH   0.0000 
@<TRIPOS>BOND
  1   1   2  1   
  2   1   3  1   
  3   4   5  1   
  4   4   6  1   
  5   7   8  1   
  6   7   9  1   
  7  10  11  1   
  8  10  12  1   
  9  13  14  1   
 10  13  15  1   
 11  16  17  1   
 12  16  18  1   
 13  19  20  1   
 14  19  21  1   
 15  22  23  1   
 16  22  24  1   
 17  25  26  1   
 18  25  27  1   
 19  28  29  1   
 20  28  30  1   
 21  31  32  1   
 22  31  33  1   
 23  34  35  1   
 24  34  36  1   
 25  37  38  1   
 26  37  39  1   
 27  40  41  1   
 28  40  42  1   
 29  43  44  1   
 30  43  45  1   
 31  46  47  1   
 32  46  48  1   
 33  49  50  1   
 34  49  51  1   
 35  52  53  1   
 36  52  54  1   
 37  55  56  1   
 38  55  57  1   
 39  58  59  1   
 40  58  60  1   
 41  61  62  1   
 42  61  63  1   
 43  64  65  1   
 44  64  66  1   
 45  67  68  1   
 46  67  69  1   
 47  70  71  1   
 48  70  72  1   
 49  73  74  1   
 50  73  75  1   
 51  76  77  1   
 52  76  78  1   
 53  79  80  1   
 54  79  81  1   
 55  82  83  1   
 56  82  84  1   
 57  85  86  1   
 58  85  87  1   
 59  88  89  1   
 60  88  90  1   
 61  91  92  1   
 62  91  93  1   
 63  94  95  1   
 64  94  96  1   
 65  97  98  1   
 66  97  99  1   
 67 100 101  1   
 68 100 102  1   
 69 103 104  1   
 70 103 105  1   
 71 106 107  1   
 72 106 108  1   
 73 109 110  1   
 74 109 111  1   
 75 112 113  1   
 76 112 114  1   
 77 115 116  1   
 78 115 117  1   
 79 118 119  1   
 80 118 120  1   
 81 121 122  1   
 82 121 123  1   
 83 124 125  1   
 84 124 126  1   
 85 127 128  1   
 86 127 129  1   
 87 130 131  1   
 88 130 132  1   
 89 133 134  1   
 90 133 135  1   
 91 136 137  1   
 92 136 138  1   
 93 139 140  1   
 94 139 141  1   
 95 142 143  1   
 96 142 144  1   
 97 145 146  1   
 98 145 147  1   
 99 148 149  1   
100 148 150  1   
101 151 152  1   
102 151 153  1   
103 154 155  1   
104 154 156  1   
105 157 158  1   
106 157 159  1   
107 160 161  1   
108 160 162  1   
109 163 164  1   
110 163 165  1   
111 166 167  1   
112 166 168  1   
113 169 170  1   
114 169 171  1   
@<TRIPOS>SUBSTRUCTURE
  1 HOH   1 GROUP 4 C **** 0
  2 HOH   4 GROUP 4 C **** 0
  3 HOH   7 GROUP 4 C **** 0
  4 HOH  10 GROUP 4 C **** 0
  5 HOH  13 GROUP 4 C **** 0
  6 HOH  16 GROUP 4 C **** 0
  7 HOH  19 GROUP 4 C **** 0
  8 HOH  22 GROUP 4 C **** 0
  9 HOH  25 GROUP 4 C **** 0
 10 HOH  28 GROUP 4 C **** 0
 11 HOH  31 GROUP 4 C **** 0
 12 HOH  34 GROUP 4 C **** 0
 13 HOH  37 GROUP 4 C **** 0
 14 HOH  40 GROUP 4 C **** 0
 15 HOH  43 GROUP 4 C **** 0
 16 HOH  46 GROUP 4 C **** 0
 17 HOH  49 GROUP 4 C **** 0
 18 HOH  52 GROUP 4 C **** 0
 19 HOH  55 GROUP 4 C **** 0
 20 HOH  58 GROUP 4 C **** 0
 21 HOH  61 GROUP 4 C **** 0
 22 HOH  64 GROUP 4 C **** 0
 23 HOH  67 GROUP 4 C **** 0
 24 HOH  70 GROUP 4 C **** 0
 25 HOH  73 GROUP 4 C **** 0
 26 HOH  76 GROUP 4 C **** 0
 27 HOH  79 GROUP 4 C **** 0
 28 HOH  82 GROUP 4 C **** 0
 29 HOH  85 GROUP 4 C **** 0
 30 HOH  88 GROUP 4 C **** 0
 31 HOH  91 GROUP 4 C **** 0
 32 HOH  94 GROUP 4 C **** 0
 33 HOH  97 GROUP 4 C **** 0
 34 HOH 100 GROUP 4 C **** 0
 35 HOH 103 GROUP 4 C **** 0
 36 HOH 106 GROUP 4 C **** 0
 37 HOH 109 GROUP 4 C **** 0
 38 HOH 112 GROUP 4 C **** 0
 39 HOH 115 GROUP 4 C **** 0
 40 HOH 118 GROUP 4 C **** 0
 41 HOH 121 GROUP 4 C **** 0
 42 HOH 124 GROUP 4 C **** 0
 43 HOH 127 GROUP 4 C **** 0
 44 HOH 130 GROUP 4 C **** 0
 45 HOH 133 GROUP 4 C **** 0
 46 HOH 136 GROUP 4 C **** 0
 47 HOH 139 GROUP 4 C **** 0
 48 HOH 142 GROUP 4 C **** 0
 49 HOH 145 GROUP 4 C **** 0
 50 HOH 148 GROUP 4 C **** 0
 51 HOH 151 GROUP 4 C **** 0
 52 HOH 154 GROUP 4 C **** 0
 53 HOH 157 GROUP 4 C **** 0
 54 HOH 160 GROUP 4 C **** 0
 55 HOH 163 GROUP 4 C **** 0
 56 HOH 166 GROUP 4 C **** 0
 57 HOH 169 GROUP 4 C **** 0

# MOE 2012.10 (io_trps.svl 2012.10)
