@<TRIPOS>MOLECULE
2gqg.A
60 63 1 0 0 
SMALL
USER_CHARGES


@<TRIPOS>ATOM
  1 C1       0.1585    21.0324    42.7575 C.2   1 Q1N1   0.0772 
  2 H1       0.1096    22.0261    42.3371 H     1 Q1N1   0.1500 
  3 C2       0.9814    20.0696    42.3383 C.2   1 Q1N1  -0.0450 
  4 C3       2.0485    20.1464    41.2950 C.2   1 Q1N1   0.7150 
  5 N6      -4.4383    13.8402    49.7441 N.4   1 Q1N1  -0.9590 
  6 H6      -4.0649    13.9077    50.6801 H     1 Q1N1   0.4500 
  7 C7       4.9952    21.6120    37.4714 C.ar  1 Q1N1  -0.1500 
  8 H7       5.6414    21.7644    36.6196 H     1 Q1N1   0.1500 
  9 C8       3.6229    21.4082    37.2729 C.ar  1 Q1N1  -0.1500 
 10 H8       3.2311    21.3524    36.2680 H     1 Q1N1   0.1500 
 11 C9       2.7548    21.2764    38.3623 C.ar  1 Q1N1  -0.1435 
 12 C10      1.2817    21.1263    38.1098 C.3   1 Q1N1  -0.0965 
 13 H101     1.0966    21.1141    37.0357 H     1 Q1N1   0.0800 
 14 H102     0.7486    21.9632    38.5609 H     1 Q1N1   0.0800 
 15 H103     0.9309    20.1927    38.5496 H     1 Q1N1   0.0800 
 16 C11     -1.0091    17.3098    45.6257 C.ar  1 Q1N1   0.4100 
 17 C12     -1.7439    16.8970    46.7520 C.ar  1 Q1N1  -0.1500 
 18 H12     -2.3952    17.5738    47.2851 H     1 Q1N1   0.1500 
 19 C13     -1.5853    15.5540    47.1482 C.ar  1 Q1N1   0.4100 
 20 C14     -0.0784    15.2009    45.3874 C.ar  1 Q1N1   0.4765 
 21 C15      0.9026    14.3342    44.6612 C.3   1 Q1N1  -0.0965 
 22 H151     0.9055    13.3385    45.1046 H     1 Q1N1   0.0800 
 23 H152     1.8990    14.7694    44.7388 H     1 Q1N1   0.0800 
 24 H153     0.6177    14.2637    43.6115 H     1 Q1N1   0.0800 
 25 C16     -2.1040    13.6317    48.7565 C.3   1 Q1N1   0.2091 
 26 H161    -1.5194    13.6096    49.6762 H     1 Q1N1   0.0800 
 27 H162    -1.5811    13.0732    47.9802 H     1 Q1N1   0.0800 
 28 C19     -3.1623    15.8548    49.1526 C.3   1 Q1N1   0.2091 
 29 H191    -3.2441    16.8536    48.7240 H     1 Q1N1   0.0800 
 30 H192    -2.7557    15.9245    50.1615 H     1 Q1N1   0.0800 
 31 C20     -5.7810    13.2439    49.7378 C.3   1 Q1N1   0.3430 
 32 H201    -5.6694    12.1689    49.8788 H     1 Q1N1   0.0800 
 33 H202    -6.2277    13.4380    48.7626 H     1 Q1N1   0.0800 
 34 C21     -6.7599    13.7652    50.8200 C.3   1 Q1N1   0.1200 
 35 H211    -7.1739    12.9090    51.3526 H     1 Q1N1   0.0800 
 36 H212    -7.5645    14.3090    50.3251 H     1 Q1N1   0.0800 
 37 N       -1.1314    18.6059    45.2044 N.pl3 1 Q1N1  -0.5840 
 38 H       -1.7851    19.1710    45.7272 H     1 Q1N1   0.4000 
 39 C       -0.4952    19.2454    44.1771 C.2   1 Q1N1   0.4621 
 40 N1      -0.6717    20.5530    43.8701 N.2   1 Q1N1  -0.5653 
 41 S        0.7238    18.5650    43.1082 S.3   1 Q1N1  -0.0800 
 42 N2       2.4118    21.2935    40.7171 N.am  1 Q1N1  -0.5470 
 43 H2       2.0430    22.1632    41.0745 H     1 Q1N1   0.3700 
 44 C4       3.2633    21.3205    39.6627 C.ar  1 Q1N1   0.1170 
 45 C5       4.6586    21.4590    39.8389 C.ar  1 Q1N1   0.1770 
 46 C6       5.5360    21.6199    38.7581 C.ar  1 Q1N1  -0.1500 
 47 H6       6.5969    21.7461    38.9159 H     1 Q1N1   0.1500 
 48 CL       5.3666    21.4056    41.4060 Cl    1 Q1N1  -0.1770 
 49 O        2.5527    19.0575    41.0205 O.2   1 Q1N1  -0.5700 
 50 N3      -0.7487    14.7186    46.4502 N.ar  1 Q1N1  -0.6200 
 51 N4      -0.2009    16.4527    44.9652 N.ar  1 Q1N1  -0.6200 
 52 N5      -2.2662    15.0354    48.3185 N.pl3 1 Q1N1  -0.8382 
 53 C17     -3.4811    12.9740    49.0146 C.3   1 Q1N1   0.3430 
 54 H171    -3.9211    12.7121    48.0524 H     1 Q1N1   0.0800 
 55 H172    -3.3236    12.0685    49.6006 H     1 Q1N1   0.0800 
 56 C18     -4.5492    15.2077    49.2055 C.3   1 Q1N1   0.3430 
 57 H181    -5.2007    15.7990    49.8490 H     1 Q1N1   0.0800 
 58 H182    -4.9695    15.1685    48.2005 H     1 Q1N1   0.0800 
 59 O1      -6.1485    14.6278    51.7630 O.3   1 Q1N1  -0.6800 
 60 H1      -6.8218    14.8915    52.3944 H     1 Q1N1   0.4000 
@<TRIPOS>BOND
  1   1   2  1   
  2   1   3  2   
  3   1  40  1   
  4   3   4  1   
  5   3  41  1   
  6   4  42  am  
  7   4  49  2   
  8   5   6  1   
  9   5  31  1   
 10   5  53  1   
 11   5  56  1   
 12   7   8  1   
 13   7   9  ar  
 14   7  46  ar  
 15   9  10  1   
 16   9  11  ar  
 17  11  12  1   
 18  11  44  ar  
 19  12  13  1   
 20  12  14  1   
 21  12  15  1   
 22  16  17  ar  
 23  16  37  1   
 24  16  51  ar  
 25  17  18  1   
 26  17  19  ar  
 27  19  50  ar  
 28  19  52  1   
 29  20  21  1   
 30  20  50  ar  
 31  20  51  ar  
 32  21  22  1   
 33  21  23  1   
 34  21  24  1   
 35  25  26  1   
 36  25  27  1   
 37  25  52  1   
 38  25  53  1   
 39  28  29  1   
 40  28  30  1   
 41  28  52  1   
 42  28  56  1   
 43  31  32  1   
 44  31  33  1   
 45  31  34  1   
 46  34  35  1   
 47  34  36  1   
 48  34  59  1   
 49  37  38  1   
 50  37  39  1   
 51  39  40  2   
 52  39  41  1   
 53  42  43  1   
 54  42  44  1   
 55  44  45  ar  
 56  45  46  ar  
 57  45  48  1   
 58  46  47  1   
 59  53  54  1   
 60  53  55  1   
 61  56  57  1   
 62  56  58  1   
 63  59  60  1   
@<TRIPOS>SUBSTRUCTURE
  1 Q1N1  39 GROUP 4 A **** 0

# MOE 2012.10 (io_trps.svl 2012.10)
