@<TRIPOS>MOLECULE
2gqg.A
435 290 145 0 0 
SMALL
USER_CHARGES


@<TRIPOS>ATOM
  1 O       -4.8523    29.6270    38.4036 O.3     1 HOH   0.0000 
  2 H1      -3.8923    29.6270    38.4036 H       1 HOH   0.0000 
  3 H2      -5.1426    30.2741    39.0506 H       1 HOH   0.0000 
  4 O      -14.6551     4.4197    40.3641 O.3     2 HOH   0.0000 
  5 H1     -13.6951     4.4197    40.3641 H       2 HOH   0.0000 
  6 H2     -14.9453     5.0667    41.0112 H       2 HOH   0.0000 
  7 O      -16.4705     7.0512    43.3410 O.3     3 HOH   0.0000 
  8 H1     -15.5105     7.0512    43.3410 H       3 HOH   0.0000 
  9 H2     -16.7608     7.6983    43.9880 H       3 HOH   0.0000 
 10 O      -19.6092     7.9265    47.7447 O.3     4 HOH   0.0000 
 11 H1     -18.6492     7.9265    47.7447 H       4 HOH   0.0000 
 12 H2     -19.8994     8.5736    48.3918 H       4 HOH   0.0000 
 13 O      -13.1283    20.0169    46.4331 O.3     5 HOH   0.0000 
 14 H1     -12.1683    20.0169    46.4331 H       5 HOH   0.0000 
 15 H2     -13.4186    20.6640    47.0802 H       5 HOH   0.0000 
 16 O       -3.1934     4.0504    27.4611 O.3     6 HOH   0.0000 
 17 H1      -2.2334     4.0504    27.4611 H       6 HOH   0.0000 
 18 H2      -3.4837     4.6975    28.1082 H       6 HOH   0.0000 
 19 O      -15.0429    -0.0052    26.0002 O.3     7 HOH   0.0000 
 20 H1     -14.0829    -0.0052    26.0002 H       7 HOH   0.0000 
 21 H2     -15.3332     0.6418    26.6473 H       7 HOH   0.0000 
 22 O       -4.0469     0.1001    19.0765 O.3     8 HOH   0.0000 
 23 H1      -3.0869     0.1001    19.0765 H       8 HOH   0.0000 
 24 H2      -4.3371     0.7471    19.7236 H       8 HOH   0.0000 
 25 O       -4.9816    -1.3573    16.7574 O.3     9 HOH   0.0000 
 26 H1      -4.0216    -1.3573    16.7574 H       9 HOH   0.0000 
 27 H2      -5.2719    -0.7103    17.4044 H       9 HOH   0.0000 
 28 O      -14.2240     6.2245    22.5654 O.3    10 HOH   0.0000 
 29 H1     -13.2640     6.2245    22.5654 H      10 HOH   0.0000 
 30 H2     -14.5142     6.8716    23.2125 H      10 HOH   0.0000 
 31 O      -20.3125     1.5572    22.5895 O.3    11 HOH   0.0000 
 32 H1     -19.3525     1.5572    22.5895 H      11 HOH   0.0000 
 33 H2     -20.6028     2.2043    23.2366 H      11 HOH   0.0000 
 34 O       -6.8590    13.0162    44.5479 O.3    12 HOH  -0.8340 
 35 H1      -6.9399    13.7299    45.1807 H      12 HOH   0.4170 
 36 H2      -7.0461    13.4232    43.7020 H      12 HOH   0.4170 
 37 O      -15.0741    12.4364    11.2532 O.3    13 HOH   0.0000 
 38 H1     -14.1141    12.4364    11.2532 H      13 HOH   0.0000 
 39 H2     -15.3643    13.0835    11.9003 H      13 HOH   0.0000 
 40 O       -9.0190     7.2676    22.8794 O.3    14 HOH   0.0000 
 41 H1      -8.0590     7.2676    22.8794 H      14 HOH   0.0000 
 42 H2      -9.3093     7.9146    23.5264 H      14 HOH   0.0000 
 43 O        1.8921    29.1412    35.5480 O.3    15 HOH   0.0000 
 44 H1       2.8521    29.1412    35.5480 H      15 HOH   0.0000 
 45 H2       1.6018    29.7883    36.1950 H      15 HOH   0.0000 
 46 O       -3.9487    16.1049    25.3131 O.3    16 HOH   0.0000 
 47 H1      -2.9887    16.1049    25.3131 H      16 HOH   0.0000 
 48 H2      -4.2390    16.7519    25.9601 H      16 HOH   0.0000 
 49 O       -4.6533    16.4081    15.1040 O.3    17 HOH   0.0000 
 50 H1      -3.6933    16.4081    15.1040 H      17 HOH   0.0000 
 51 H2      -4.9436    17.0551    15.7510 H      17 HOH   0.0000 
 52 O       -9.0439    -2.2000    31.5543 O.3    18 HOH   0.0000 
 53 H1      -8.0839    -2.2000    31.5543 H      18 HOH   0.0000 
 54 H2      -9.3342    -1.5530    32.2013 H      18 HOH   0.0000 
 55 O      -16.1365     9.6177    13.1523 O.3    19 HOH   0.0000 
 56 H1     -15.1765     9.6177    13.1523 H      19 HOH   0.0000 
 57 H2     -16.4268    10.2647    13.7994 H      19 HOH   0.0000 
 58 O       -3.2500    35.5765    30.5506 O.3    20 HOH   0.0000 
 59 H1      -2.2900    35.5765    30.5506 H      20 HOH   0.0000 
 60 H2      -3.5402    36.2235    31.1977 H      20 HOH   0.0000 
 61 O       -3.2048    16.6246    21.9727 O.3    21 HOH   0.0000 
 62 H1      -2.2448    16.6246    21.9727 H      21 HOH   0.0000 
 63 H2      -3.4950    17.2716    22.6198 H      21 HOH   0.0000 
 64 O      -16.8361    21.2814    13.1792 O.3    22 HOH   0.0000 
 65 H1     -15.8761    21.2814    13.1792 H      22 HOH   0.0000 
 66 H2     -17.1263    21.9284    13.8262 H      22 HOH   0.0000 
 67 O       22.3142    22.9235    47.5601 O.3    23 HOH   0.0000 
 68 H1      23.2742    22.9235    47.5601 H      23 HOH   0.0000 
 69 H2      22.0239    23.5705    48.2072 H      23 HOH   0.0000 
 70 O      -29.0451    15.6695    28.4463 O.3    24 HOH   0.0000 
 71 H1     -28.0851    15.6695    28.4463 H      24 HOH   0.0000 
 72 H2     -29.3354    16.3166    29.0934 H      24 HOH   0.0000 
 73 O      -15.3443    26.0382    43.0069 O.3    25 HOH   0.0000 
 74 H1     -14.3843    26.0382    43.0069 H      25 HOH   0.0000 
 75 H2     -15.6346    26.6852    43.6540 H      25 HOH   0.0000 
 76 O        6.9637     6.3020    15.9792 O.3    26 HOH   0.0000 
 77 H1       7.9237     6.3020    15.9792 H      26 HOH   0.0000 
 78 H2       6.6735     6.9490    16.6262 H      26 HOH   0.0000 
 79 O       14.9826    36.2174    41.6025 O.3    27 HOH   0.0000 
 80 H1      15.9426    36.2174    41.6025 H      27 HOH   0.0000 
 81 H2      14.6923    36.8645    42.2495 H      27 HOH   0.0000 
 82 O       17.3313    36.5228    39.4184 O.3    28 HOH   0.0000 
 83 H1      18.2913    36.5228    39.4184 H      28 HOH   0.0000 
 84 H2      17.0410    37.1698    40.0654 H      28 HOH   0.0000 
 85 O       -2.4089    29.9172    35.7653 O.3    29 HOH   0.0000 
 86 H1      -1.4489    29.9172    35.7653 H      29 HOH   0.0000 
 87 H2      -2.6992    30.5642    36.4123 H      29 HOH   0.0000 
 88 O       -5.4901    22.9896    22.9897 O.3    30 HOH   0.0000 
 89 H1      -4.5301    22.9896    22.9897 H      30 HOH   0.0000 
 90 H2      -5.7804    23.6367    23.6368 H      30 HOH   0.0000 
 91 O        2.1791    35.3838    33.6065 O.3    31 HOH   0.0000 
 92 H1       3.1391    35.3838    33.6065 H      31 HOH   0.0000 
 93 H2       1.8888    36.0309    34.2535 H      31 HOH   0.0000 
 94 O      -13.5712    24.3106    14.6961 O.3    32 HOH   0.0000 
 95 H1     -12.6112    24.3106    14.6961 H      32 HOH   0.0000 
 96 H2     -13.8615    24.9576    15.3431 H      32 HOH   0.0000 
 97 O      -23.8017    15.6242    35.0698 O.3    33 HOH   0.0000 
 98 H1     -22.8417    15.6242    35.0698 H      33 HOH   0.0000 
 99 H2     -24.0920    16.2713    35.7169 H      33 HOH   0.0000 
100 O      -13.7516     6.1400    13.1822 O.3    34 HOH   0.0000 
101 H1     -12.7916     6.1400    13.1822 H      34 HOH   0.0000 
102 H2     -14.0418     6.7871    13.8292 H      34 HOH   0.0000 
103 O       14.1158    13.5230    17.8861 O.3    35 HOH   0.0000 
104 H1      15.0758    13.5230    17.8861 H      35 HOH   0.0000 
105 H2      13.8255    14.1701    18.5331 H      35 HOH   0.0000 
106 O        1.8809    18.5876    28.6191 O.3    36 HOH   0.0000 
107 H1       2.8409    18.5876    28.6191 H      36 HOH   0.0000 
108 H2       1.5907    19.2346    29.2662 H      36 HOH   0.0000 
109 O       -8.3452    11.5919    46.4136 O.3    37 HOH  -0.8340 
110 H1      -8.0206    11.5859    45.5131 H      37 HOH   0.4170 
111 H2      -8.2662    10.6830    46.7032 H      37 HOH   0.4170 
112 O      -12.3760     0.3832    34.4388 O.3    38 HOH   0.0000 
113 H1     -11.4160     0.3832    34.4388 H      38 HOH   0.0000 
114 H2     -12.6662     1.0302    35.0859 H      38 HOH   0.0000 
115 O       -4.4712    23.2843    16.0454 O.3    39 HOH   0.0000 
116 H1      -3.5112    23.2843    16.0454 H      39 HOH   0.0000 
117 H2      -4.7615    23.9313    16.6925 H      39 HOH   0.0000 
118 O       18.4633    43.0604    34.2495 O.3    40 HOH   0.0000 
119 H1      19.4233    43.0604    34.2495 H      40 HOH   0.0000 
120 H2      18.1730    43.7075    34.8966 H      40 HOH   0.0000 
121 O      -17.4123    29.7082    24.6629 O.3    41 HOH   0.0000 
122 H1     -16.4523    29.7082    24.6629 H      41 HOH   0.0000 
123 H2     -17.7025    30.3552    25.3099 H      41 HOH   0.0000 
124 O        3.0568    15.9940    30.0952 O.3    42 HOH   0.0000 
125 H1       4.0168    15.9940    30.0952 H      42 HOH   0.0000 
126 H2       2.7665    16.6411    30.7422 H      42 HOH   0.0000 
127 O      -14.9646    -2.2286    27.1135 O.3    43 HOH   0.0000 
128 H1     -14.0046    -2.2286    27.1135 H      43 HOH   0.0000 
129 H2     -15.2548    -1.5815    27.7605 H      43 HOH   0.0000 
130 O       -0.6213    27.9977    47.1028 O.3    44 HOH   0.0000 
131 H1       0.3387    27.9977    47.1028 H      44 HOH   0.0000 
132 H2      -0.9116    28.6448    47.7499 H      44 HOH   0.0000 
133 O        5.0206     9.6028    48.8167 O.3    45 HOH   0.0000 
134 H1       5.9806     9.6028    48.8167 H      45 HOH   0.0000 
135 H2       4.7303    10.2498    49.4637 H      45 HOH   0.0000 
136 O        2.2706    16.1234     6.7145 O.3    46 HOH   0.0000 
137 H1       3.2306    16.1234     6.7145 H      46 HOH   0.0000 
138 H2       1.9803    16.7705     7.3615 H      46 HOH   0.0000 
139 O       -7.1634     6.2904    21.4022 O.3    47 HOH   0.0000 
140 H1      -6.2034     6.2904    21.4022 H      47 HOH   0.0000 
141 H2      -7.4536     6.9375    22.0492 H      47 HOH   0.0000 
142 O       -3.8429    26.0970     8.1547 O.3    48 HOH   0.0000 
143 H1      -2.8829    26.0970     8.1547 H      48 HOH   0.0000 
144 H2      -4.1332    26.7441     8.8017 H      48 HOH   0.0000 
145 O       -4.0547    30.4950    43.6398 O.3    49 HOH   0.0000 
146 H1      -3.0947    30.4950    43.6398 H      49 HOH   0.0000 
147 H2      -4.3450    31.1421    44.2869 H      49 HOH   0.0000 
148 O       -7.4018    24.8512    46.8303 O.3    50 HOH   0.0000 
149 H1      -6.4418    24.8512    46.8303 H      50 HOH   0.0000 
150 H2      -7.6921    25.4982    47.4774 H      50 HOH   0.0000 
151 O       -6.3753     9.8763    33.9023 O.3    51 HOH   0.0000 
152 H1      -5.4153     9.8763    33.9023 H      51 HOH   0.0000 
153 H2      -6.6656    10.5233    34.5494 H      51 HOH   0.0000 
154 O       -4.5172    26.2100    15.4922 O.3    52 HOH   0.0000 
155 H1      -3.5572    26.2100    15.4922 H      52 HOH   0.0000 
156 H2      -4.8075    26.8570    16.1392 H      52 HOH   0.0000 
157 O       22.1069    37.8177    44.6588 O.3    53 HOH   0.0000 
158 H1      23.0669    37.8177    44.6588 H      53 HOH   0.0000 
159 H2      21.8166    38.4647    45.3059 H      53 HOH   0.0000 
160 O        8.8390    35.1857    32.2602 O.3    54 HOH   0.0000 
161 H1       9.7990    35.1857    32.2602 H      54 HOH   0.0000 
162 H2       8.5487    35.8328    32.9073 H      54 HOH   0.0000 
163 O        9.3348    19.0184    31.3392 O.3    55 HOH   0.0000 
164 H1      10.2948    19.0184    31.3392 H      55 HOH   0.0000 
165 H2       9.0446    19.6654    31.9862 H      55 HOH   0.0000 
166 O       -2.9702    14.4108    23.5361 O.3    56 HOH   0.0000 
167 H1      -2.0102    14.4108    23.5361 H      56 HOH   0.0000 
168 H2      -3.2605    15.0579    24.1832 H      56 HOH   0.0000 
169 O       -1.4858    11.9047    23.5756 O.3    57 HOH   0.0000 
170 H1      -0.5258    11.9047    23.5756 H      57 HOH   0.0000 
171 H2      -1.7761    12.5518    24.2227 H      57 HOH   0.0000 
172 O       18.5733    34.6546    38.3380 O.3    58 HOH   0.0000 
173 H1      19.5333    34.6546    38.3380 H      58 HOH   0.0000 
174 H2      18.2830    35.3016    38.9850 H      58 HOH   0.0000 
175 O       -4.5693     7.2949    34.0478 O.3    59 HOH   0.0000 
176 H1      -3.6093     7.2949    34.0478 H      59 HOH   0.0000 
177 H2      -4.8595     7.9420    34.6949 H      59 HOH   0.0000 
178 O        2.1973    32.3545    34.4889 O.3    60 HOH   0.0000 
179 H1       3.1573    32.3545    34.4889 H      60 HOH   0.0000 
180 H2       1.9070    33.0015    35.1359 H      60 HOH   0.0000 
181 O      -13.3116    30.3063    33.9392 O.3    61 HOH   0.0000 
182 H1     -12.3516    30.3063    33.9392 H      61 HOH   0.0000 
183 H2     -13.6019    30.9533    34.5863 H      61 HOH   0.0000 
184 O      -21.2045     6.2413    35.7091 O.3    62 HOH   0.0000 
185 H1     -20.2445     6.2413    35.7091 H      62 HOH   0.0000 
186 H2     -21.4948     6.8884    36.3561 H      62 HOH   0.0000 
187 O      -27.6703    21.4983    36.2635 O.3    63 HOH   0.0000 
188 H1     -26.7103    21.4983    36.2635 H      63 HOH   0.0000 
189 H2     -27.9606    22.1454    36.9105 H      63 HOH   0.0000 
190 O       -3.2641    32.0950    38.6794 O.3    64 HOH   0.0000 
191 H1      -2.3041    32.0950    38.6794 H      64 HOH   0.0000 
192 H2      -3.5544    32.7420    39.3264 H      64 HOH   0.0000 
193 O      -15.4969    13.3777    48.6720 O.3    65 HOH   0.0000 
194 H1     -14.5369    13.3777    48.6720 H      65 HOH   0.0000 
195 H2     -15.7872    14.0248    49.3191 H      65 HOH   0.0000 
196 O      -29.0202     5.3901    32.5305 O.3    66 HOH   0.0000 
197 H1     -28.0602     5.3901    32.5305 H      66 HOH   0.0000 
198 H2     -29.3105     6.0372    33.1776 H      66 HOH   0.0000 
199 O      -28.1779    30.1277    40.1708 O.3    67 HOH   0.0000 
200 H1     -27.2179    30.1277    40.1708 H      67 HOH   0.0000 
201 H2     -28.4682    30.7748    40.8179 H      67 HOH   0.0000 
202 O       -3.0463    -4.6355    26.6982 O.3    68 HOH   0.0000 
203 H1      -2.0863    -4.6355    26.6982 H      68 HOH   0.0000 
204 H2      -3.3366    -3.9884    27.3453 H      68 HOH   0.0000 
205 O      -20.6036    26.7002    49.5706 O.3    69 HOH   0.0000 
206 H1     -19.6436    26.7002    49.5706 H      69 HOH   0.0000 
207 H2     -20.8938    27.3472    50.2176 H      69 HOH   0.0000 
208 O      -17.8332     9.2489    18.0170 O.3    70 HOH   0.0000 
209 H1     -16.8732     9.2489    18.0170 H      70 HOH   0.0000 
210 H2     -18.1235     9.8959    18.6640 H      70 HOH   0.0000 
211 O       25.7610    40.3568    39.0283 O.3    71 HOH   0.0000 
212 H1      26.7210    40.3568    39.0283 H      71 HOH   0.0000 
213 H2      25.4707    41.0039    39.6753 H      71 HOH   0.0000 
214 O       -2.5357    17.9048    51.7901 O.3    72 HOH  -0.8340 
215 H1      -1.6241    17.7755    52.0518 H      72 HOH   0.4170 
216 H2      -2.9105    18.4458    52.4851 H      72 HOH   0.4170 
217 O       -6.5797     5.6078    33.9495 O.3    73 HOH   0.0000 
218 H1      -5.6197     5.6078    33.9495 H      73 HOH   0.0000 
219 H2      -6.8700     6.2548    34.5966 H      73 HOH   0.0000 
220 O      -23.8363     7.4405    46.1175 O.3    74 HOH   0.0000 
221 H1     -22.8763     7.4405    46.1175 H      74 HOH   0.0000 
222 H2     -24.1266     8.0876    46.7646 H      74 HOH   0.0000 
223 O      -19.3693    22.7599    43.8205 O.3    75 HOH   0.0000 
224 H1     -18.4093    22.7599    43.8205 H      75 HOH   0.0000 
225 H2     -19.6596    23.4069    44.4675 H      75 HOH   0.0000 
226 O        3.4770    12.8049    10.4522 O.3    76 HOH   0.0000 
227 H1       4.4370    12.8049    10.4522 H      76 HOH   0.0000 
228 H2       3.1867    13.4520    11.0993 H      76 HOH   0.0000 
229 O        2.7228     8.8425    49.7958 O.3    77 HOH   0.0000 
230 H1       3.6828     8.8425    49.7958 H      77 HOH   0.0000 
231 H2       2.4325     9.4896    50.4428 H      77 HOH   0.0000 
232 O      -31.1141    27.5956    36.1827 O.3    78 HOH   0.0000 
233 H1     -30.1541    27.5956    36.1827 H      78 HOH   0.0000 
234 H2     -31.4044    28.2426    36.8297 H      78 HOH   0.0000 
235 O      -23.6239     3.7828    23.9140 O.3    79 HOH   0.0000 
236 H1     -22.6639     3.7828    23.9140 H      79 HOH   0.0000 
237 H2     -23.9142     4.4298    24.5611 H      79 HOH   0.0000 
238 O      -26.9577    14.8091    45.2869 O.3    80 HOH   0.0000 
239 H1     -25.9977    14.8091    45.2869 H      80 HOH   0.0000 
240 H2     -27.2480    15.4562    45.9339 H      80 HOH   0.0000 
241 O      -22.8592     1.9781    31.4126 O.3    81 HOH   0.0000 
242 H1     -21.8992     1.9781    31.4126 H      81 HOH   0.0000 
243 H2     -23.1495     2.6251    32.0596 H      81 HOH   0.0000 
244 O       -5.8053     8.1255    11.7069 O.3    82 HOH   0.0000 
245 H1      -4.8453     8.1255    11.7069 H      82 HOH   0.0000 
246 H2      -6.0956     8.7726    12.3539 H      82 HOH   0.0000 
247 O        3.9123    24.0003    15.5664 O.3    83 HOH  -0.8340 
248 H1       3.1263    23.6243    15.1701 H      83 HOH   0.4170 
249 H2       4.6179    23.7757    14.9598 H      83 HOH   0.4170 
250 O      -10.6468    29.1767    22.1370 O.3    84 HOH   0.0000 
251 H1      -9.6868    29.1767    22.1370 H      84 HOH   0.0000 
252 H2     -10.9371    29.8237    22.7840 H      84 HOH   0.0000 
253 O      -32.2672     7.9164    28.5617 O.3    85 HOH   0.0000 
254 H1     -31.3072     7.9164    28.5617 H      85 HOH   0.0000 
255 H2     -32.5575     8.5634    29.2088 H      85 HOH   0.0000 
256 O      -17.6065    26.5452    44.5000 O.3    86 HOH   0.0000 
257 H1     -16.6465    26.5452    44.5000 H      86 HOH   0.0000 
258 H2     -17.8968    27.1922    45.1471 H      86 HOH   0.0000 
259 O       13.3489    23.4149    53.9218 O.3    87 HOH   0.0000 
260 H1      14.3089    23.4149    53.9218 H      87 HOH   0.0000 
261 H2      13.0586    24.0619    54.5688 H      87 HOH   0.0000 
262 O      -25.2902    31.2469    39.2453 O.3    88 HOH   0.0000 
263 H1     -24.3302    31.2469    39.2453 H      88 HOH   0.0000 
264 H2     -25.5805    31.8939    39.8924 H      88 HOH   0.0000 
265 O       18.6676    30.4965    45.8290 O.3    89 HOH   0.0000 
266 H1      19.6276    30.4965    45.8290 H      89 HOH   0.0000 
267 H2      18.3773    31.1436    46.4760 H      89 HOH   0.0000 
268 O       -8.4435    -9.3939    16.5801 O.3    90 HOH   0.0000 
269 H1      -7.4835    -9.3939    16.5801 H      90 HOH   0.0000 
270 H2      -8.7338    -8.7469    17.2271 H      90 HOH   0.0000 
271 O      -29.5875    28.4106    42.7502 O.3    91 HOH   0.0000 
272 H1     -28.6275    28.4106    42.7502 H      91 HOH   0.0000 
273 H2     -29.8778    29.0577    43.3972 H      91 HOH   0.0000 
274 O       -6.2027     0.4039    34.2732 O.3    92 HOH   0.0000 
275 H1      -5.2427     0.4039    34.2732 H      92 HOH   0.0000 
276 H2      -6.4930     1.0510    34.9202 H      92 HOH   0.0000 
277 O        6.4906    25.8825    22.6928 O.3    93 HOH   0.0000 
278 H1       7.4506    25.8825    22.6928 H      93 HOH   0.0000 
279 H2       6.2004    26.5296    23.3398 H      93 HOH   0.0000 
280 O        1.6733    35.1678    30.9330 O.3    94 HOH   0.0000 
281 H1       2.6333    35.1678    30.9330 H      94 HOH   0.0000 
282 H2       1.3830    35.8149    31.5801 H      94 HOH   0.0000 
283 O       20.7954    29.9532    37.5923 O.3    95 HOH   0.0000 
284 H1      21.7554    29.9532    37.5923 H      95 HOH   0.0000 
285 H2      20.5051    30.6002    38.2393 H      95 HOH   0.0000 
286 O      -26.7127    12.1479    44.9956 O.3    96 HOH   0.0000 
287 H1     -25.7527    12.1479    44.9956 H      96 HOH   0.0000 
288 H2     -27.0030    12.7949    45.6426 H      96 HOH   0.0000 
289 O       -3.4346     7.0661    36.4970 O.3    97 HOH   0.0000 
290 H1      -2.4746     7.0661    36.4970 H      97 HOH   0.0000 
291 H2      -3.7249     7.7131    37.1441 H      97 HOH   0.0000 
292 O        5.5490    24.1928    18.4873 O.3    98 HOH  -0.8340 
293 H1       5.7189    23.3802    18.9639 H      98 HOH   0.4170 
294 H2       5.1604    23.9089    17.6598 H      98 HOH   0.4170 
295 O        6.1886     5.8820    20.2376 O.3    99 HOH   0.0000 
296 H1       7.1486     5.8820    20.2376 H      99 HOH   0.0000 
297 H2       5.8983     6.5290    20.8847 H      99 HOH   0.0000 
298 O       -2.4192    35.1736    28.1660 O.3   100 HOH   0.0000 
299 H1      -1.4592    35.1736    28.1660 H     100 HOH   0.0000 
300 H2      -2.7095    35.8206    28.8130 H     100 HOH   0.0000 
301 O       20.2494    20.9519    45.8194 O.3   101 HOH   0.0000 
302 H1      21.2094    20.9519    45.8194 H     101 HOH   0.0000 
303 H2      19.9592    21.5990    46.4664 H     101 HOH   0.0000 
304 O        7.9112    10.0351    18.7735 O.3   102 HOH   0.0000 
305 H1       8.8712    10.0351    18.7735 H     102 HOH   0.0000 
306 H2       7.6209    10.6821    19.4206 H     102 HOH   0.0000 
307 O        6.2581     7.9446    18.6294 O.3   103 HOH   0.0000 
308 H1       7.2181     7.9446    18.6294 H     103 HOH   0.0000 
309 H2       5.9678     8.5917    19.2764 H     103 HOH   0.0000 
310 O      -20.0335     3.8104    17.5091 O.3   104 HOH   0.0000 
311 H1     -19.0735     3.8104    17.5091 H     104 HOH   0.0000 
312 H2     -20.3237     4.4575    18.1561 H     104 HOH   0.0000 
313 O        8.9710    19.1857    34.6037 O.3   105 HOH  -0.8340 
314 H1       9.6263    19.8550    34.4069 H     105 HOH   0.4170 
315 H2       8.2100    19.6780    34.9116 H     105 HOH   0.4170 
316 O       14.3181    24.0587    29.2772 O.3   106 HOH   0.0000 
317 H1      15.2781    24.0587    29.2772 H     106 HOH   0.0000 
318 H2      14.0278    24.7057    29.9243 H     106 HOH   0.0000 
319 O       20.9146    29.4332    45.7287 O.3   107 HOH   0.0000 
320 H1      21.8746    29.4332    45.7287 H     107 HOH   0.0000 
321 H2      20.6243    30.0803    46.3757 H     107 HOH   0.0000 
322 O       -0.3453    28.0168    34.4147 O.3   108 HOH   0.0000 
323 H1       0.6147    28.0168    34.4147 H     108 HOH   0.0000 
324 H2      -0.6355    28.6638    35.0618 H     108 HOH   0.0000 
325 O      -18.8391    19.2279    12.5631 O.3   109 HOH   0.0000 
326 H1     -17.8791    19.2279    12.5631 H     109 HOH   0.0000 
327 H2     -19.1294    19.8750    13.2102 H     109 HOH   0.0000 
328 O        0.5116    10.6041    34.0337 O.3   110 HOH   0.0000 
329 H1       1.4716    10.6041    34.0337 H     110 HOH   0.0000 
330 H2       0.2214    11.2511    34.6807 H     110 HOH   0.0000 
331 O      -16.0434     1.9229    27.3433 O.3   111 HOH   0.0000 
332 H1     -15.0834     1.9229    27.3433 H     111 HOH   0.0000 
333 H2     -16.3337     2.5699    27.9904 H     111 HOH   0.0000 
334 O      -29.0105     8.6340    27.8279 O.3   112 HOH   0.0000 
335 H1     -28.0505     8.6340    27.8279 H     112 HOH   0.0000 
336 H2     -29.3008     9.2810    28.4750 H     112 HOH   0.0000 
337 O       -5.8251     0.4659    30.0671 O.3   113 HOH   0.0000 
338 H1      -4.8651     0.4659    30.0671 H     113 HOH   0.0000 
339 H2      -6.1154     1.1129    30.7141 H     113 HOH   0.0000 
340 O        8.9046    34.3027    28.7626 O.3   114 HOH   0.0000 
341 H1       9.8646    34.3027    28.7626 H     114 HOH   0.0000 
342 H2       8.6143    34.9498    29.4096 H     114 HOH   0.0000 
343 O       23.4716    39.4294    31.9768 O.3   115 HOH   0.0000 
344 H1      24.4316    39.4294    31.9768 H     115 HOH   0.0000 
345 H2      23.1813    40.0765    32.6238 H     115 HOH   0.0000 
346 O        9.8925    33.6272    41.7508 O.3   116 HOH   0.0000 
347 H1      10.8525    33.6272    41.7508 H     116 HOH   0.0000 
348 H2       9.6023    34.2742    42.3979 H     116 HOH   0.0000 
349 O        8.9236    31.4813    28.8269 O.3   117 HOH   0.0000 
350 H1       9.8836    31.4813    28.8269 H     117 HOH   0.0000 
351 H2       8.6333    32.1284    29.4740 H     117 HOH   0.0000 
352 O       18.2137    27.1784    43.7633 O.3   118 HOH   0.0000 
353 H1      19.1737    27.1784    43.7633 H     118 HOH   0.0000 
354 H2      17.9234    27.8254    44.4103 H     118 HOH   0.0000 
355 O       -2.2590    12.8610    44.0354 O.3   119 HOH  -0.8340 
356 H1      -1.8407    12.0363    44.2828 H     119 HOH   0.4170 
357 H2      -2.0797    13.4503    44.7681 H     119 HOH   0.4170 
358 O       11.1738    20.0908    20.4987 O.3   120 HOH  -0.8340 
359 H1      11.4620    20.2465    19.5993 H     120 HOH   0.4170 
360 H2      10.3197    20.5193    20.5547 H     120 HOH   0.4170 
361 O       -7.8121     5.4619    44.2774 O.3   121 HOH   0.0000 
362 H1      -6.8521     5.4619    44.2774 H     121 HOH   0.0000 
363 H2      -8.1023     6.1090    44.9244 H     121 HOH   0.0000 
364 O       -5.8537     3.7567    36.9503 O.3   122 HOH   0.0000 
365 H1      -4.8937     3.7567    36.9503 H     122 HOH   0.0000 
366 H2      -6.1440     4.4038    37.5973 H     122 HOH   0.0000 
367 O       17.5149    29.7481    43.5090 O.3   123 HOH   0.0000 
368 H1      18.4749    29.7481    43.5090 H     123 HOH   0.0000 
369 H2      17.2246    30.3952    44.1561 H     123 HOH   0.0000 
370 O       -5.6597    33.3524    36.9910 O.3   124 HOH   0.0000 
371 H1      -4.6997    33.3524    36.9910 H     124 HOH   0.0000 
372 H2      -5.9499    33.9994    37.6380 H     124 HOH   0.0000 
373 O      -19.6052    19.9955    51.2210 O.3   125 HOH   0.0000 
374 H1     -18.6452    19.9955    51.2210 H     125 HOH   0.0000 
375 H2     -19.8954    20.6425    51.8681 H     125 HOH   0.0000 
376 O        9.9607    32.9616    52.2141 O.3   126 HOH   0.0000 
377 H1      10.9207    32.9616    52.2141 H     126 HOH   0.0000 
378 H2       9.6704    33.6087    52.8611 H     126 HOH   0.0000 
379 O       -6.8611    34.0417    19.4801 O.3   127 HOH   0.0000 
380 H1      -5.9011    34.0417    19.4801 H     127 HOH   0.0000 
381 H2      -7.1514    34.6888    20.1271 H     127 HOH   0.0000 
382 O      -30.5087    14.9347    26.1661 O.3   128 HOH   0.0000 
383 H1     -29.5487    14.9347    26.1661 H     128 HOH   0.0000 
384 H2     -30.7989    15.5818    26.8132 H     128 HOH   0.0000 
385 O      -24.7448    29.7745    28.3308 O.3   129 HOH   0.0000 
386 H1     -23.7848    29.7745    28.3308 H     129 HOH   0.0000 
387 H2     -25.0351    30.4215    28.9778 H     129 HOH   0.0000 
388 O       -0.5344     3.4760    27.4695 O.3   130 HOH   0.0000 
389 H1       0.4256     3.4760    27.4695 H     130 HOH   0.0000 
390 H2      -0.8246     4.1230    28.1166 H     130 HOH   0.0000 
391 O      -12.6833    21.7512    50.3790 O.3   131 HOH   0.0000 
392 H1     -11.7233    21.7512    50.3790 H     131 HOH   0.0000 
393 H2     -12.9736    22.3983    51.0260 H     131 HOH   0.0000 
394 O       -9.5869    12.1248     8.9622 O.3   132 HOH   0.0000 
395 H1      -8.6269    12.1248     8.9622 H     132 HOH   0.0000 
396 H2      -9.8772    12.7718     9.6093 H     132 HOH   0.0000 
397 O       24.1645    26.1815    46.9320 O.3   133 HOH   0.0000 
398 H1      25.1245    26.1815    46.9320 H     133 HOH   0.0000 
399 H2      23.8742    26.8286    47.5791 H     133 HOH   0.0000 
400 O      -31.3885    24.0035    28.4036 O.3   134 HOH   0.0000 
401 H1     -30.4285    24.0035    28.4036 H     134 HOH   0.0000 
402 H2     -31.6787    24.6505    29.0506 H     134 HOH   0.0000 
403 O       -6.6323    22.6980    14.3893 O.3   135 HOH   0.0000 
404 H1      -5.6723    22.6980    14.3893 H     135 HOH   0.0000 
405 H2      -6.9226    23.3451    15.0363 H     135 HOH   0.0000 
406 O       15.8158    23.3053    49.6868 O.3   136 HOH   0.0000 
407 H1      16.7758    23.3053    49.6868 H     136 HOH   0.0000 
408 H2      15.5256    23.9524    50.3338 H     136 HOH   0.0000 
409 O        5.9881    35.8091    31.8611 O.3   137 HOH   0.0000 
410 H1       6.9481    35.8091    31.8611 H     137 HOH   0.0000 
411 H2       5.6979    36.4561    32.5082 H     137 HOH   0.0000 
412 O       -9.1276     6.5104    34.0839 O.3   138 HOH   0.0000 
413 H1      -8.1676     6.5104    34.0839 H     138 HOH   0.0000 
414 H2      -9.4179     7.1574    34.7309 H     138 HOH   0.0000 
415 O      -23.9062    29.0420    39.9325 O.3   139 HOH   0.0000 
416 H1     -22.9462    29.0420    39.9325 H     139 HOH   0.0000 
417 H2     -24.1964    29.6890    40.5795 H     139 HOH   0.0000 
418 O        9.0450    17.5858    27.3451 O.3   140 HOH   0.0000 
419 H1      10.0050    17.5858    27.3451 H     140 HOH   0.0000 
420 H2       8.7547    18.2328    27.9922 H     140 HOH   0.0000 
421 O       20.0992    32.9024    46.6007 O.3   141 HOH   0.0000 
422 H1      21.0592    32.9024    46.6007 H     141 HOH   0.0000 
423 H2      19.8089    33.5494    47.2477 H     141 HOH   0.0000 
424 O        2.9984     6.6370    26.6135 O.3   142 HOH   0.0000 
425 H1       3.9584     6.6370    26.6135 H     142 HOH   0.0000 
426 H2       2.7081     7.2840    27.2605 H     142 HOH   0.0000 
427 O      -26.1360    28.7823    38.4860 O.3   143 HOH   0.0000 
428 H1     -25.1760    28.7823    38.4860 H     143 HOH   0.0000 
429 H2     -26.4263    29.4294    39.1330 H     143 HOH   0.0000 
430 O      -28.6901    18.3948    28.7354 O.3   144 HOH   0.0000 
431 H1     -27.7301    18.3948    28.7354 H     144 HOH   0.0000 
432 H2     -28.9804    19.0419    29.3825 H     144 HOH   0.0000 
433 O      -21.8040    15.4284    33.3592 O.3   145 HOH   0.0000 
434 H1     -20.8440    15.4284    33.3592 H     145 HOH   0.0000 
435 H2     -22.0943    16.0754    34.0062 H     145 HOH   0.0000 
@<TRIPOS>BOND
  1   1   2  1   
  2   1   3  1   
  3   4   5  1   
  4   4   6  1   
  5   7   8  1   
  6   7   9  1   
  7  10  11  1   
  8  10  12  1   
  9  13  14  1   
 10  13  15  1   
 11  16  17  1   
 12  16  18  1   
 13  19  20  1   
 14  19  21  1   
 15  22  23  1   
 16  22  24  1   
 17  25  26  1   
 18  25  27  1   
 19  28  29  1   
 20  28  30  1   
 21  31  32  1   
 22  31  33  1   
 23  34  35  1   
 24  34  36  1   
 25  37  38  1   
 26  37  39  1   
 27  40  41  1   
 28  40  42  1   
 29  43  44  1   
 30  43  45  1   
 31  46  47  1   
 32  46  48  1   
 33  49  50  1   
 34  49  51  1   
 35  52  53  1   
 36  52  54  1   
 37  55  56  1   
 38  55  57  1   
 39  58  59  1   
 40  58  60  1   
 41  61  62  1   
 42  61  63  1   
 43  64  65  1   
 44  64  66  1   
 45  67  68  1   
 46  67  69  1   
 47  70  71  1   
 48  70  72  1   
 49  73  74  1   
 50  73  75  1   
 51  76  77  1   
 52  76  78  1   
 53  79  80  1   
 54  79  81  1   
 55  82  83  1   
 56  82  84  1   
 57  85  86  1   
 58  85  87  1   
 59  88  89  1   
 60  88  90  1   
 61  91  92  1   
 62  91  93  1   
 63  94  95  1   
 64  94  96  1   
 65  97  98  1   
 66  97  99  1   
 67 100 101  1   
 68 100 102  1   
 69 103 104  1   
 70 103 105  1   
 71 106 107  1   
 72 106 108  1   
 73 109 110  1   
 74 109 111  1   
 75 112 113  1   
 76 112 114  1   
 77 115 116  1   
 78 115 117  1   
 79 118 119  1   
 80 118 120  1   
 81 121 122  1   
 82 121 123  1   
 83 124 125  1   
 84 124 126  1   
 85 127 128  1   
 86 127 129  1   
 87 130 131  1   
 88 130 132  1   
 89 133 134  1   
 90 133 135  1   
 91 136 137  1   
 92 136 138  1   
 93 139 140  1   
 94 139 141  1   
 95 142 143  1   
 96 142 144  1   
 97 145 146  1   
 98 145 147  1   
 99 148 149  1   
100 148 150  1   
101 151 152  1   
102 151 153  1   
103 154 155  1   
104 154 156  1   
105 157 158  1   
106 157 159  1   
107 160 161  1   
108 160 162  1   
109 163 164  1   
110 163 165  1   
111 166 167  1   
112 166 168  1   
113 169 170  1   
114 169 171  1   
115 172 173  1   
116 172 174  1   
117 175 176  1   
118 175 177  1   
119 178 179  1   
120 178 180  1   
121 181 182  1   
122 181 183  1   
123 184 185  1   
124 184 186  1   
125 187 188  1   
126 187 189  1   
127 190 191  1   
128 190 192  1   
129 193 194  1   
130 193 195  1   
131 196 197  1   
132 196 198  1   
133 199 200  1   
134 199 201  1   
135 202 203  1   
136 202 204  1   
137 205 206  1   
138 205 207  1   
139 208 209  1   
140 208 210  1   
141 211 212  1   
142 211 213  1   
143 214 215  1   
144 214 216  1   
145 217 218  1   
146 217 219  1   
147 220 221  1   
148 220 222  1   
149 223 224  1   
150 223 225  1   
151 226 227  1   
152 226 228  1   
153 229 230  1   
154 229 231  1   
155 232 233  1   
156 232 234  1   
157 235 236  1   
158 235 237  1   
159 238 239  1   
160 238 240  1   
161 241 242  1   
162 241 243  1   
163 244 245  1   
164 244 246  1   
165 247 248  1   
166 247 249  1   
167 250 251  1   
168 250 252  1   
169 253 254  1   
170 253 255  1   
171 256 257  1   
172 256 258  1   
173 259 260  1   
174 259 261  1   
175 262 263  1   
176 262 264  1   
177 265 266  1   
178 265 267  1   
179 268 269  1   
180 268 270  1   
181 271 272  1   
182 271 273  1   
183 274 275  1   
184 274 276  1   
185 277 278  1   
186 277 279  1   
187 280 281  1   
188 280 282  1   
189 283 284  1   
190 283 285  1   
191 286 287  1   
192 286 288  1   
193 289 290  1   
194 289 291  1   
195 292 293  1   
196 292 294  1   
197 295 296  1   
198 295 297  1   
199 298 299  1   
200 298 300  1   
201 301 302  1   
202 301 303  1   
203 304 305  1   
204 304 306  1   
205 307 308  1   
206 307 309  1   
207 310 311  1   
208 310 312  1   
209 313 314  1   
210 313 315  1   
211 316 317  1   
212 316 318  1   
213 319 320  1   
214 319 321  1   
215 322 323  1   
216 322 324  1   
217 325 326  1   
218 325 327  1   
219 328 329  1   
220 328 330  1   
221 331 332  1   
222 331 333  1   
223 334 335  1   
224 334 336  1   
225 337 338  1   
226 337 339  1   
227 340 341  1   
228 340 342  1   
229 343 344  1   
230 343 345  1   
231 346 347  1   
232 346 348  1   
233 349 350  1   
234 349 351  1   
235 352 353  1   
236 352 354  1   
237 355 356  1   
238 355 357  1   
239 358 359  1   
240 358 360  1   
241 361 362  1   
242 361 363  1   
243 364 365  1   
244 364 366  1   
245 367 368  1   
246 367 369  1   
247 370 371  1   
248 370 372  1   
249 373 374  1   
250 373 375  1   
251 376 377  1   
252 376 378  1   
253 379 380  1   
254 379 381  1   
255 382 383  1   
256 382 384  1   
257 385 386  1   
258 385 387  1   
259 388 389  1   
260 388 390  1   
261 391 392  1   
262 391 393  1   
263 394 395  1   
264 394 396  1   
265 397 398  1   
266 397 399  1   
267 400 401  1   
268 400 402  1   
269 403 404  1   
270 403 405  1   
271 406 407  1   
272 406 408  1   
273 409 410  1   
274 409 411  1   
275 412 413  1   
276 412 414  1   
277 415 416  1   
278 415 417  1   
279 418 419  1   
280 418 420  1   
281 421 422  1   
282 421 423  1   
283 424 425  1   
284 424 426  1   
285 427 428  1   
286 427 429  1   
287 430 431  1   
288 430 432  1   
289 433 434  1   
290 433 435  1   
@<TRIPOS>SUBSTRUCTURE
  1 HOH   1 GROUP 4 A **** 0
  2 HOH   4 GROUP 4 A **** 0
  3 HOH   7 GROUP 4 A **** 0
  4 HOH  10 GROUP 4 A **** 0
  5 HOH  13 GROUP 4 A **** 0
  6 HOH  16 GROUP 4 A **** 0
  7 HOH  19 GROUP 4 A **** 0
  8 HOH  22 GROUP 4 A **** 0
  9 HOH  25 GROUP 4 A **** 0
 10 HOH  28 GROUP 4 A **** 0
 11 HOH  31 GROUP 4 A **** 0
 12 HOH  34 GROUP 4 A **** 0
 13 HOH  37 GROUP 4 A **** 0
 14 HOH  40 GROUP 4 A **** 0
 15 HOH  43 GROUP 4 A **** 0
 16 HOH  46 GROUP 4 A **** 0
 17 HOH  49 GROUP 4 A **** 0
 18 HOH  52 GROUP 4 A **** 0
 19 HOH  55 GROUP 4 A **** 0
 20 HOH  58 GROUP 4 A **** 0
 21 HOH  61 GROUP 4 A **** 0
 22 HOH  64 GROUP 4 A **** 0
 23 HOH  67 GROUP 4 A **** 0
 24 HOH  70 GROUP 4 A **** 0
 25 HOH  73 GROUP 4 A **** 0
 26 HOH  76 GROUP 4 A **** 0
 27 HOH  79 GROUP 4 A **** 0
 28 HOH  82 GROUP 4 A **** 0
 29 HOH  85 GROUP 4 A **** 0
 30 HOH  88 GROUP 4 A **** 0
 31 HOH  91 GROUP 4 A **** 0
 32 HOH  94 GROUP 4 A **** 0
 33 HOH  97 GROUP 4 A **** 0
 34 HOH 100 GROUP 4 A **** 0
 35 HOH 103 GROUP 4 A **** 0
 36 HOH 106 GROUP 4 A **** 0
 37 HOH 109 GROUP 4 A **** 0
 38 HOH 112 GROUP 4 A **** 0
 39 HOH 115 GROUP 4 A **** 0
 40 HOH 118 GROUP 4 A **** 0
 41 HOH 121 GROUP 4 A **** 0
 42 HOH 124 GROUP 4 A **** 0
 43 HOH 127 GROUP 4 A **** 0
 44 HOH 130 GROUP 4 A **** 0
 45 HOH 133 GROUP 4 A **** 0
 46 HOH 136 GROUP 4 A **** 0
 47 HOH 139 GROUP 4 A **** 0
 48 HOH 142 GROUP 4 A **** 0
 49 HOH 145 GROUP 4 A **** 0
 50 HOH 148 GROUP 4 A **** 0
 51 HOH 151 GROUP 4 A **** 0
 52 HOH 154 GROUP 4 A **** 0
 53 HOH 157 GROUP 4 A **** 0
 54 HOH 160 GROUP 4 A **** 0
 55 HOH 163 GROUP 4 A **** 0
 56 HOH 166 GROUP 4 A **** 0
 57 HOH 169 GROUP 4 A **** 0
 58 HOH 172 GROUP 4 A **** 0
 59 HOH 175 GROUP 4 A **** 0
 60 HOH 178 GROUP 4 A **** 0
 61 HOH 181 GROUP 4 A **** 0
 62 HOH 184 GROUP 4 A **** 0
 63 HOH 187 GROUP 4 A **** 0
 64 HOH 190 GROUP 4 A **** 0
 65 HOH 193 GROUP 4 A **** 0
 66 HOH 196 GROUP 4 A **** 0
 67 HOH 199 GROUP 4 A **** 0
 68 HOH 202 GROUP 4 A **** 0
 69 HOH 205 GROUP 4 A **** 0
 70 HOH 208 GROUP 4 A **** 0
 71 HOH 211 GROUP 4 A **** 0
 72 HOH 214 GROUP 4 A **** 0
 73 HOH 217 GROUP 4 A **** 0
 74 HOH 220 GROUP 4 A **** 0
 75 HOH 223 GROUP 4 A **** 0
 76 HOH 226 GROUP 4 A **** 0
 77 HOH 229 GROUP 4 A **** 0
 78 HOH 232 GROUP 4 A **** 0
 79 HOH 235 GROUP 4 A **** 0
 80 HOH 238 GROUP 4 A **** 0
 81 HOH 241 GROUP 4 A **** 0
 82 HOH 244 GROUP 4 A **** 0
 83 HOH 247 GROUP 4 A **** 0
 84 HOH 250 GROUP 4 A **** 0
 85 HOH 253 GROUP 4 A **** 0
 86 HOH 256 GROUP 4 A **** 0
 87 HOH 259 GROUP 4 A **** 0
 88 HOH 262 GROUP 4 A **** 0
 89 HOH 265 GROUP 4 A **** 0
 90 HOH 268 GROUP 4 A **** 0
 91 HOH 271 GROUP 4 A **** 0
 92 HOH 274 GROUP 4 A **** 0
 93 HOH 277 GROUP 4 A **** 0
 94 HOH 280 GROUP 4 A **** 0
 95 HOH 283 GROUP 4 A **** 0
 96 HOH 286 GROUP 4 A **** 0
 97 HOH 289 GROUP 4 A **** 0
 98 HOH 292 GROUP 4 A **** 0
 99 HOH 295 GROUP 4 A **** 0
100 HOH 298 GROUP 4 A **** 0
101 HOH 301 GROUP 4 A **** 0
102 HOH 304 GROUP 4 A **** 0
103 HOH 307 GROUP 4 A **** 0
104 HOH 310 GROUP 4 A **** 0
105 HOH 313 GROUP 4 A **** 0
106 HOH 316 GROUP 4 A **** 0
107 HOH 319 GROUP 4 A **** 0
108 HOH 322 GROUP 4 A **** 0
109 HOH 325 GROUP 4 A **** 0
110 HOH 328 GROUP 4 A **** 0
111 HOH 331 GROUP 4 A **** 0
112 HOH 334 GROUP 4 A **** 0
113 HOH 337 GROUP 4 A **** 0
114 HOH 340 GROUP 4 A **** 0
115 HOH 343 GROUP 4 A **** 0
116 HOH 346 GROUP 4 A **** 0
117 HOH 349 GROUP 4 A **** 0
118 HOH 352 GROUP 4 A **** 0
119 HOH 355 GROUP 4 A **** 0
120 HOH 358 GROUP 4 A **** 0
121 HOH 361 GROUP 4 A **** 0
122 HOH 364 GROUP 4 A **** 0
123 HOH 367 GROUP 4 A **** 0
124 HOH 370 GROUP 4 A **** 0
125 HOH 373 GROUP 4 A **** 0
126 HOH 376 GROUP 4 A **** 0
127 HOH 379 GROUP 4 A **** 0
128 HOH 382 GROUP 4 A **** 0
129 HOH 385 GROUP 4 A **** 0
130 HOH 388 GROUP 4 A **** 0
131 HOH 391 GROUP 4 A **** 0
132 HOH 394 GROUP 4 A **** 0
133 HOH 397 GROUP 4 A **** 0
134 HOH 400 GROUP 4 A **** 0
135 HOH 403 GROUP 4 A **** 0
136 HOH 406 GROUP 4 A **** 0
137 HOH 409 GROUP 4 A **** 0
138 HOH 412 GROUP 4 A **** 0
139 HOH 415 GROUP 4 A **** 0
140 HOH 418 GROUP 4 A **** 0
141 HOH 421 GROUP 4 A **** 0
142 HOH 424 GROUP 4 A **** 0
143 HOH 427 GROUP 4 A **** 0
144 HOH 430 GROUP 4 A **** 0
145 HOH 433 GROUP 4 A **** 0

# MOE 2012.10 (io_trps.svl 2012.10)
