@<TRIPOS>MOLECULE
1opl.B
45 48 1 0 0 
SMALL
USER_CHARGES


@<TRIPOS>ATOM
  1 O1      -1.4852    14.5632    48.9416 O.3   1 P16  -0.6800 
  2 H1      -1.8682    14.3071    49.7838 H     1 P16   0.4000 
  3 C2      -2.4819    14.4355    47.9670 C.3   1 P16   0.2635 
  4 H21     -3.3155    15.0843    48.2357 H     1 P16   0.0800 
  5 H22     -2.8192    13.3991    47.9491 H     1 P16   0.0800 
  6 C3      -2.0041    14.8128    46.5757 C.ar  1 P16  -0.1435 
  7 C4      -1.6631    13.7906    45.6208 C.ar  1 P16  -0.1500 
  8 H4      -1.7526    12.7494    45.8934 H     1 P16   0.1500 
  9 C5      -1.2135    14.1416    44.3328 C.ar  1 P16  -0.1500 
 10 H5      -0.9611    13.3663    43.6246 H     1 P16   0.1500 
 11 C6      -1.0883    15.5117    43.9553 C.ar  1 P16  -0.1500 
 12 H6      -0.7409    15.7731    42.9667 H     1 P16   0.1500 
 13 C7      -1.4266    16.5396    44.8963 C.ar  1 P16   0.1000 
 14 N9      -1.3152    17.9314    44.6435 N.pl3 1 P16  -0.6000 
 15 H9      -1.8548    18.5370    45.2453 H     1 P16   0.4000 
 16 C10     -0.5631    18.5524    43.6808 C.ar  1 P16   0.7200 
 17 N11     -0.6085    19.9356    43.7098 N.ar  1 P16  -0.6200 
 18 C12      0.1355    20.5913    42.8028 C.ar  1 P16   0.1600 
 19 H12      0.1066    21.6709    42.7968 H     1 P16   0.1500 
 20 C13      0.9598    19.9293    41.8499 C.ar  1 P16   0.0284 
 21 C16      1.7626    20.6151    40.8799 C.2   1 P16  -0.1784 
 22 H16      1.7628    21.6948    40.8537 H     1 P16   0.1500 
 23 C17      2.5261    19.9184    39.9899 C.2   1 P16  -0.0140 
 24 C18      2.5165    18.4094    39.9801 C.2   1 P16   0.6156 
 25 O21      3.1651    17.6946    39.2150 O.2   1 P16  -0.5700 
 26 N19      1.7006    17.7583    40.9723 N.am  1 P16  -0.4771 
 27 C14      0.9211    18.4844    41.8751 C.ar  1 P16   0.4270 
 28 N15      0.1809    17.8270    42.8023 N.ar  1 P16  -0.6200 
 29 C20      1.6421    16.2789    41.0227 C.3   1 P16   0.0601 
 30 H201     2.3016    15.8631    40.2610 H     1 P16   0.0800 
 31 H202     0.6198    15.9491    40.8375 H     1 P16   0.0800 
 32 H203     1.9618    15.9359    42.0067 H     1 P16   0.0800 
 33 C22      3.3848    20.5861    38.9898 C.ar  1 P16   0.0284 
 34 C27      2.9594    20.7865    37.6462 C.ar  1 P16   0.1770 
 35 CL28     1.3572    20.2844    37.1540 Cl    1 P16  -0.1770 
 36 C26      3.8170    21.4215    36.6889 C.ar  1 P16  -0.1500 
 37 H26      3.4718    21.5830    35.6784 H     1 P16   0.1500 
 38 C25      5.1248    21.8397    37.0702 C.ar  1 P16  -0.1500 
 39 H25      5.7760    22.2974    36.3403 H     1 P16   0.1500 
 40 C24      5.5786    21.6576    38.4090 C.ar  1 P16  -0.1500 
 41 H24      6.5605    21.9928    38.7090 H     1 P16   0.1500 
 42 C23      4.7066    21.0220    39.3458 C.ar  1 P16   0.1770 
 43 CL29     5.2740    20.8114    40.9770 Cl    1 P16  -0.1770 
 44 C8      -1.8835    16.1747    46.2078 C.ar  1 P16  -0.1500 
 45 H8      -2.1375    16.9459    46.9199 H     1 P16   0.1500 
@<TRIPOS>BOND
  1   1   2  1   
  2   1   3  1   
  3   3   4  1   
  4   3   5  1   
  5   3   6  1   
  6   6   7  ar  
  7   6  44  ar  
  8   7   8  1   
  9   7   9  ar  
 10   9  10  1   
 11   9  11  ar  
 12  11  12  1   
 13  11  13  ar  
 14  13  14  1   
 15  13  44  ar  
 16  14  15  1   
 17  14  16  1   
 18  16  17  ar  
 19  16  28  ar  
 20  17  18  ar  
 21  18  19  1   
 22  18  20  ar  
 23  20  21  1   
 24  20  27  ar  
 25  21  22  1   
 26  21  23  2   
 27  23  24  1   
 28  23  33  1   
 29  24  25  2   
 30  24  26  am  
 31  26  27  1   
 32  26  29  1   
 33  27  28  ar  
 34  29  30  1   
 35  29  31  1   
 36  29  32  1   
 37  33  34  ar  
 38  33  42  ar  
 39  34  35  1   
 40  34  36  ar  
 41  36  37  1   
 42  36  38  ar  
 43  38  39  1   
 44  38  40  ar  
 45  40  41  1   
 46  40  42  ar  
 47  42  43  1   
 48  44  45  1   
@<TRIPOS>SUBSTRUCTURE
  1 P16  27 GROUP 4 B **** 0

# MOE 2012.10 (io_trps.svl 2012.10)
