@<TRIPOS>MOLECULE
4xey.B
60 63 1 0 0 
SMALL
USER_CHARGES


@<TRIPOS>ATOM
  1 C1       0.1202    20.7525    42.6244 C.2   1 Q1N1   0.0772 
  2 H1       0.0367    21.7793    42.3004 H     1 Q1N1   0.1500 
  3 C2       1.0294    19.8387    42.0784 C.2   1 Q1N1  -0.0450 
  4 C3       2.0295    19.9600    40.9822 C.2   1 Q1N1   0.7150 
  5 N6      -3.1531    13.3969    49.9070 N.4   1 Q1N1  -0.9590 
  6 H6      -3.2049    12.4044    49.7273 H     1 Q1N1   0.4500 
  7 C7       4.8638    21.4288    37.0549 C.ar  1 Q1N1  -0.1500 
  8 H7       5.5337    21.4975    36.2106 H     1 Q1N1   0.1500 
  9 C8       3.4955    21.2477    36.8771 C.ar  1 Q1N1  -0.1500 
 10 H8       3.1008    21.1772    35.8743 H     1 Q1N1   0.1500 
 11 C9       2.6129    21.1541    37.9678 C.ar  1 Q1N1  -0.1435 
 12 C10      1.1487    20.9649    37.6520 C.3   1 Q1N1  -0.0965 
 13 H101     1.0130    20.9199    36.5715 H     1 Q1N1   0.0800 
 14 H102     0.5789    21.8020    38.0553 H     1 Q1N1   0.0800 
 15 H103     0.7972    20.0361    38.1013 H     1 Q1N1   0.0800 
 16 C11     -1.0088    16.9481    45.2186 C.ar  1 Q1N1   0.4100 
 17 C12     -1.6716    16.4529    46.3233 C.ar  1 Q1N1  -0.1500 
 18 H12     -2.3121    17.0827    46.9230 H     1 Q1N1   0.1500 
 19 C13     -1.4804    15.1009    46.6355 C.ar  1 Q1N1   0.4100 
 20 C14     -0.0644    14.7839    44.8454 C.ar  1 Q1N1   0.4765 
 21 C15      0.8221    13.8790    44.0208 C.3   1 Q1N1  -0.0965 
 22 H151     0.8184    12.8771    44.4503 H     1 Q1N1   0.0800 
 23 H152     1.8396    14.2700    44.0195 H     1 Q1N1   0.0800 
 24 H153     0.4476    13.8372    42.9980 H     1 Q1N1   0.0800 
 25 C16     -3.3423    15.0563    48.1627 C.3   1 Q1N1   0.2091 
 26 H161    -3.9368    15.4078    47.3194 H     1 Q1N1   0.0800 
 27 H162    -3.1702    15.8807    48.8547 H     1 Q1N1   0.0800 
 28 C19     -1.5225    13.2108    48.1406 C.3   1 Q1N1   0.2091 
 29 H191    -0.4520    13.1901    47.9363 H     1 Q1N1   0.0800 
 30 H192    -2.0108    12.3983    47.6026 H     1 Q1N1   0.0800 
 31 C20     -3.6487    13.5230    51.2751 C.3   1 Q1N1   0.3430 
 32 H201    -4.7381    13.5584    51.2789 H     1 Q1N1   0.0800 
 33 H202    -3.2541    14.4285    51.7362 H     1 Q1N1   0.0800 
 34 C21     -3.1603    12.2939    52.0289 C.3   1 Q1N1   0.1200 
 35 H211    -3.4491    12.3587    53.0780 H     1 Q1N1   0.0800 
 36 H212    -2.0756    12.2157    51.9549 H     1 Q1N1   0.0800 
 37 N       -1.1329    18.2712    44.8507 N.pl3 1 Q1N1  -0.5840 
 38 H       -1.8206    18.8218    45.3447 H     1 Q1N1   0.4000 
 39 C       -0.4114    18.9064    43.8793 C.2   1 Q1N1   0.4621 
 40 N1      -0.6520    20.2041    43.6139 N.2   1 Q1N1  -0.5653 
 41 S        0.8779    18.2580    42.8480 S.3   1 Q1N1  -0.0800 
 42 N2       2.2057    21.1337    40.3462 N.am  1 Q1N1  -0.5470 
 43 H2       1.6991    21.9487    40.6611 H     1 Q1N1   0.3700 
 44 C4       3.0631    21.2438    39.2750 C.ar  1 Q1N1   0.1170 
 45 C5       4.4466    21.4218    39.4429 C.ar  1 Q1N1   0.1770 
 46 C6       5.3382    21.5182    38.3624 C.ar  1 Q1N1  -0.1500 
 47 H6       6.3930    21.6618    38.5448 H     1 Q1N1   0.1500 
 48 CL       5.1416    21.5456    41.0850 Cl    1 Q1N1  -0.1770 
 49 O        2.6668    18.9546    40.7235 O.2   1 Q1N1  -0.5700 
 50 N3      -0.6974    14.2809    45.9157 N.ar  1 Q1N1  -0.6200 
 51 N4      -0.2363    16.0900    44.5263 N.ar  1 Q1N1  -0.6200 
 52 N5      -2.0879    14.5074    47.7055 N.pl3 1 Q1N1  -0.8382 
 53 C17     -4.0368    13.9134    48.8615 C.3   1 Q1N1   0.3430 
 54 H171    -4.9661    14.2668    49.3082 H     1 Q1N1   0.0800 
 55 H172    -4.2564    13.1233    48.1434 H     1 Q1N1   0.0800 
 56 C18     -1.7624    13.0525    49.6367 C.3   1 Q1N1   0.3430 
 57 H181    -1.5715    12.0217    49.9352 H     1 Q1N1   0.0800 
 58 H182    -1.1014    13.7194    50.1903 H     1 Q1N1   0.0800 
 59 O1      -3.7828    11.1478    51.4136 O.3   1 Q1N1  -0.6800 
 60 H1      -3.4758    10.3661    51.8786 H     1 Q1N1   0.4000 
@<TRIPOS>BOND
  1   1   2  1   
  2   1   3  2   
  3   1  40  1   
  4   3   4  1   
  5   3  41  1   
  6   4  42  am  
  7   4  49  2   
  8   5   6  1   
  9   5  31  1   
 10   5  53  1   
 11   5  56  1   
 12   7   8  1   
 13   7   9  ar  
 14   7  46  ar  
 15   9  10  1   
 16   9  11  ar  
 17  11  12  1   
 18  11  44  ar  
 19  12  13  1   
 20  12  14  1   
 21  12  15  1   
 22  16  17  ar  
 23  16  37  1   
 24  16  51  ar  
 25  17  18  1   
 26  17  19  ar  
 27  19  50  ar  
 28  19  52  1   
 29  20  21  1   
 30  20  50  ar  
 31  20  51  ar  
 32  21  22  1   
 33  21  23  1   
 34  21  24  1   
 35  25  26  1   
 36  25  27  1   
 37  25  52  1   
 38  25  53  1   
 39  28  29  1   
 40  28  30  1   
 41  28  52  1   
 42  28  56  1   
 43  31  32  1   
 44  31  33  1   
 45  31  34  1   
 46  34  35  1   
 47  34  36  1   
 48  34  59  1   
 49  37  38  1   
 50  37  39  1   
 51  39  40  2   
 52  39  41  1   
 53  42  43  1   
 54  42  44  1   
 55  44  45  ar  
 56  45  46  ar  
 57  45  48  1   
 58  46  47  1   
 59  53  54  1   
 60  53  55  1   
 61  56  57  1   
 62  56  58  1   
 63  59  60  1   
@<TRIPOS>SUBSTRUCTURE
  1 Q1N1  51 GROUP 4 B **** 0

# MOE 2012.10 (io_trps.svl 2012.10)
