@<TRIPOS>MOLECULE
4wa9.A
46 49 1 0 0 
SMALL
USER_CHARGES


@<TRIPOS>ATOM
  1 O81      4.6946    19.1553    36.8843 O.2   1 AXI  -0.5700 
  2 C80      4.5117    17.9432    36.9138 C.2   1 AXI   0.5438 
  3 N82      5.6275    17.0762    36.7058 N.am  1 AXI  -0.7301 
  4 H82      5.5033    16.0739    36.7150 H     1 AXI   0.3700 
  5 C88      6.9447    17.6512    36.4807 C.3   1 AXI   0.0601 
  6 H881     6.8756    18.7387    36.5067 H     1 AXI   0.0800 
  7 H882     7.3180    17.3341    35.5070 H     1 AXI   0.0800 
  8 H883     7.6273    17.3117    37.2597 H     1 AXI   0.0800 
  9 C23      3.1329    17.3928    37.1202 C.ar  1 AXI   0.0862 
 10 C22      2.5728    16.5243    36.1850 C.ar  1 AXI  -0.1500 
 11 H22      3.1443    16.2339    35.3159 H     1 AXI   0.1500 
 12 C21      1.2823    16.0267    36.3598 C.ar  1 AXI  -0.1500 
 13 H21      0.8632    15.3531    35.6270 H     1 AXI   0.1500 
 14 C20      0.5270    16.3942    37.4781 C.ar  1 AXI  -0.1500 
 15 H20     -0.4718    16.0075    37.6168 H     1 AXI   0.1500 
 16 C18      2.3727    17.7715    38.2347 C.ar  1 AXI   0.1015 
 17 C19      1.0876    17.2729    38.4163 C.ar  1 AXI  -0.1500 
 18 H19      0.5171    17.5643    39.2858 H     1 AXI   0.1500 
 19 S24      3.0974    18.8872    39.4307 S.3   1 AXI  -0.2030 
 20 C07      2.0669    18.8051    40.8980 C.ar  1 AXI   0.1015 
 21 C08      1.7934    17.5711    41.5218 C.ar  1 AXI  -0.1500 
 22 H08      2.2116    16.6612    41.1172 H     1 AXI   0.1500 
 23 C09      0.9716    17.5161    42.6786 C.ar  1 AXI  -0.1500 
 24 H09      0.7568    16.5724    43.1580 H     1 AXI   0.1500 
 25 C12      1.5457    19.9946    41.4005 C.ar  1 AXI  -0.1500 
 26 H12      1.7572    20.9369    40.9170 H     1 AXI   0.1500 
 27 C11      0.7200    19.9421    42.5768 C.ar  1 AXI  -0.1516 
 28 N15      0.0653    20.9453    43.2665 N.pl3 1 AXI   0.2996 
 29 H15      0.0751    21.9273    43.0305 H     1 AXI   0.2700 
 30 N14     -0.6010    20.3812    44.3270 N.2   1 AXI  -0.7068 
 31 C13     -0.4088    19.0470    44.3236 C.2   1 AXI   0.2428 
 32 C10      0.4339    18.7382    43.1962 C.ar  1 AXI   0.0000 
 33 C16     -1.0163    18.1149    45.3336 C.2   1 AXI  -0.1040 
 34 H16     -1.7140    18.5413    46.0392 H     1 AXI   0.1500 
 35 C17     -0.7631    16.7684    45.4396 C.2   1 AXI  -0.1784 
 36 H17     -0.0488    16.2749    44.7972 H     1 AXI   0.1500 
 37 C02     -1.5282    16.0143    46.4926 C.ar  1 AXI   0.3384 
 38 N03     -2.3977    16.6885    47.2713 N.ar  1 AXI  -0.6200 
 39 C04     -3.1121    16.0782    48.2436 C.ar  1 AXI   0.1600 
 40 H04     -3.8056    16.6444    48.8478 H     1 AXI   0.1500 
 41 C05     -2.9455    14.7167    48.4577 C.ar  1 AXI  -0.1500 
 42 H05     -3.5100    14.2177    49.2316 H     1 AXI   0.1500 
 43 C06     -2.0523    13.9980    47.6756 C.ar  1 AXI  -0.1500 
 44 H06     -1.9138    12.9399    47.8417 H     1 AXI   0.1500 
 45 C01     -1.3334    14.6519    46.6720 C.ar  1 AXI  -0.1500 
 46 H01     -0.6398    14.1080    46.0480 H     1 AXI   0.1500 
@<TRIPOS>BOND
  1   1   2  2   
  2   2   3  am  
  3   2   9  1   
  4   3   4  1   
  5   3   5  1   
  6   5   6  1   
  7   5   7  1   
  8   5   8  1   
  9   9  10  ar  
 10   9  16  ar  
 11  10  11  1   
 12  10  12  ar  
 13  12  13  1   
 14  12  14  ar  
 15  14  15  1   
 16  14  17  ar  
 17  16  17  ar  
 18  16  19  1   
 19  17  18  1   
 20  19  20  1   
 21  20  21  ar  
 22  20  25  ar  
 23  21  22  1   
 24  21  23  ar  
 25  23  24  1   
 26  23  32  ar  
 27  25  26  1   
 28  25  27  ar  
 29  27  28  1   
 30  27  32  ar  
 31  28  29  1   
 32  28  30  1   
 33  30  31  2   
 34  31  32  1   
 35  31  33  1   
 36  33  34  1   
 37  33  35  2   
 38  35  36  1   
 39  35  37  1   
 40  37  38  ar  
 41  37  45  ar  
 42  38  39  ar  
 43  39  40  1   
 44  39  41  ar  
 45  41  42  1   
 46  41  43  ar  
 47  43  44  1   
 48  43  45  ar  
 49  45  46  1   
@<TRIPOS>SUBSTRUCTURE
  1 AXI  21 GROUP 4 A **** 0

# MOE 2012.10 (io_trps.svl 2012.10)
