@<TRIPOS>MOLECULE
4wa9.A
522 348 174 0 0 
SMALL
USER_CHARGES


@<TRIPOS>ATOM
  1 O        4.9630    34.9227    56.0915 O.3     1 HOH   0.0000 
  2 H1       5.9230    34.9227    56.0915 H       1 HOH   0.0000 
  3 H2       4.6727    35.5697    56.7386 H       1 HOH   0.0000 
  4 O      -24.7223     8.1052    44.6695 O.3     2 HOH   0.0000 
  5 H1     -23.7623     8.1052    44.6695 H       2 HOH   0.0000 
  6 H2     -25.0126     8.7522    45.3165 H       2 HOH   0.0000 
  7 O      -16.3881     6.6612    45.5716 O.3     3 HOH   0.0000 
  8 H1     -15.4281     6.6612    45.5716 H       3 HOH   0.0000 
  9 H2     -16.6783     7.3082    46.2186 H       3 HOH   0.0000 
 10 O       10.4976    32.4771    52.4018 O.3     4 HOH   0.0000 
 11 H1      11.4576    32.4771    52.4018 H       4 HOH   0.0000 
 12 H2      10.2073    33.1241    53.0488 H       4 HOH   0.0000 
 13 O      -14.1863    12.7822    10.8476 O.3     5 HOH   0.0000 
 14 H1     -13.2263    12.7822    10.8476 H       5 HOH   0.0000 
 15 H2     -14.4765    13.4293    11.4946 H       5 HOH   0.0000 
 16 O      -22.9125    19.4286    45.3278 O.3     6 HOH   0.0000 
 17 H1     -21.9525    19.4286    45.3278 H       6 HOH   0.0000 
 18 H2     -23.2028    20.0757    45.9748 H       6 HOH   0.0000 
 19 O      -14.6311     0.2881    25.2757 O.3     7 HOH   0.0000 
 20 H1     -13.6711     0.2881    25.2757 H       7 HOH   0.0000 
 21 H2     -14.9214     0.9351    25.9228 H       7 HOH   0.0000 
 22 O      -24.8134    25.1695    40.1797 O.3     8 HOH   0.0000 
 23 H1     -23.8534    25.1695    40.1797 H       8 HOH   0.0000 
 24 H2     -25.1037    25.8166    40.8267 H       8 HOH   0.0000 
 25 O       -6.7534    29.1572    42.9506 O.3     9 HOH   0.0000 
 26 H1      -5.7934    29.1572    42.9506 H       9 HOH   0.0000 
 27 H2      -7.0436    29.8042    43.5976 H       9 HOH   0.0000 
 28 O       -7.6495    12.6517     8.1625 O.3    10 HOH   0.0000 
 29 H1      -6.6895    12.6517     8.1625 H      10 HOH   0.0000 
 30 H2      -7.9397    13.2988     8.8096 H      10 HOH   0.0000 
 31 O      -15.2920     4.7688    39.7347 O.3    11 HOH   0.0000 
 32 H1     -14.3320     4.7688    39.7347 H      11 HOH   0.0000 
 33 H2     -15.5823     5.4158    40.3818 H      11 HOH   0.0000 
 34 O      -16.8015     7.0538    42.6479 O.3    12 HOH   0.0000 
 35 H1     -15.8415     7.0538    42.6479 H      12 HOH   0.0000 
 36 H2     -17.0917     7.7008    43.2949 H      12 HOH   0.0000 
 37 O      -19.1802     4.1466    16.5688 O.3    13 HOH   0.0000 
 38 H1     -18.2202     4.1466    16.5688 H      13 HOH   0.0000 
 39 H2     -19.4704     4.7937    17.2158 H      13 HOH   0.0000 
 40 O       -8.4636     4.4413    46.4078 O.3    14 HOH   0.0000 
 41 H1      -7.5036     4.4413    46.4078 H      14 HOH   0.0000 
 42 H2      -8.7539     5.0884    47.0548 H      14 HOH   0.0000 
 43 O       -7.0373    -5.5672    16.2165 O.3    15 HOH   0.0000 
 44 H1      -6.0773    -5.5672    16.2165 H      15 HOH   0.0000 
 45 H2      -7.3276    -4.9201    16.8635 H      15 HOH   0.0000 
 46 O      -18.2074     4.1197    37.6597 O.3    16 HOH   0.0000 
 47 H1     -17.2474     4.1197    37.6597 H      16 HOH   0.0000 
 48 H2     -18.4977     4.7668    38.3067 H      16 HOH   0.0000 
 49 O        6.1721    12.3984    54.2405 O.3    17 HOH   0.0000 
 50 H1       7.1321    12.3984    54.2405 H      17 HOH   0.0000 
 51 H2       5.8819    13.0454    54.8875 H      17 HOH   0.0000 
 52 O      -11.5741    26.9836    45.8418 O.3    18 HOH   0.0000 
 53 H1     -10.6141    26.9836    45.8418 H      18 HOH   0.0000 
 54 H2     -11.8643    27.6307    46.4888 H      18 HOH   0.0000 
 55 O      -15.0240     9.8511    12.5527 O.3    19 HOH   0.0000 
 56 H1     -14.0640     9.8511    12.5527 H      19 HOH   0.0000 
 57 H2     -15.3143    10.4982    13.1998 H      19 HOH   0.0000 
 58 O      -14.8915    -2.0279    26.7320 O.3    20 HOH   0.0000 
 59 H1     -13.9315    -2.0279    26.7320 H      20 HOH   0.0000 
 60 H2     -15.1818    -1.3809    27.3791 H      20 HOH   0.0000 
 61 O      -15.7086    10.0832    50.1552 O.3    21 HOH   0.0000 
 62 H1     -14.7486    10.0832    50.1552 H      21 HOH   0.0000 
 63 H2     -15.9989    10.7303    50.8022 H      21 HOH   0.0000 
 64 O      -21.2039    25.6566    21.3154 O.3    22 HOH   0.0000 
 65 H1     -20.2439    25.6566    21.3154 H      22 HOH   0.0000 
 66 H2     -21.4942    26.3036    21.9625 H      22 HOH   0.0000 
 67 O      -15.8456    -0.2477    10.4047 O.3    23 HOH   0.0000 
 68 H1     -14.8856    -0.2477    10.4047 H      23 HOH   0.0000 
 69 H2     -16.1359     0.3994    11.0518 H      23 HOH   0.0000 
 70 O       -8.5329     5.8339    43.9608 O.3    24 HOH   0.0000 
 71 H1      -7.5729     5.8339    43.9608 H      24 HOH   0.0000 
 72 H2      -8.8232     6.4810    44.6079 H      24 HOH   0.0000 
 73 O      -14.1947    20.8924    48.8366 O.3    25 HOH   0.0000 
 74 H1     -13.2347    20.8924    48.8366 H      25 HOH   0.0000 
 75 H2     -14.4850    21.5395    49.4836 H      25 HOH   0.0000 
 76 O      -23.2637     7.3906    39.7265 O.3    26 HOH   0.0000 
 77 H1     -22.3037     7.3906    39.7265 H      26 HOH   0.0000 
 78 H2     -23.5539     8.0377    40.3735 H      26 HOH   0.0000 
 79 O       14.2662    25.3737    54.7822 O.3    27 HOH   0.0000 
 80 H1      15.2262    25.3737    54.7822 H      27 HOH   0.0000 
 81 H2      13.9759    26.0207    55.4292 H      27 HOH   0.0000 
 82 O       -3.9910     8.5533    11.5667 O.3    28 HOH   0.0000 
 83 H1      -3.0310     8.5533    11.5667 H      28 HOH   0.0000 
 84 H2      -4.2813     9.2004    12.2137 H      28 HOH   0.0000 
 85 O      -15.2627    21.9057    13.4747 O.3    29 HOH   0.0000 
 86 H1     -14.3027    21.9057    13.4747 H      29 HOH   0.0000 
 87 H2     -15.5529    22.5528    14.1217 H      29 HOH   0.0000 
 88 O      -13.1481     6.5904    12.3228 O.3    30 HOH   0.0000 
 89 H1     -12.1881     6.5904    12.3228 H      30 HOH   0.0000 
 90 H2     -13.4383     7.2374    12.9698 H      30 HOH   0.0000 
 91 O       -2.9173    -4.1950    26.8887 O.3    31 HOH   0.0000 
 92 H1      -1.9573    -4.1950    26.8887 H      31 HOH   0.0000 
 93 H2      -3.2075    -3.5480    27.5358 H      31 HOH   0.0000 
 94 O      -17.3411    22.3758    14.7799 O.3    32 HOH   0.0000 
 95 H1     -16.3811    22.3758    14.7799 H      32 HOH   0.0000 
 96 H2     -17.6314    23.0229    15.4269 H      32 HOH   0.0000 
 97 O      -17.1385     1.7789    26.4343 O.3    33 HOH   0.0000 
 98 H1     -16.1785     1.7789    26.4343 H      33 HOH   0.0000 
 99 H2     -17.4288     2.4260    27.0813 H      33 HOH   0.0000 
100 O      -21.0146     6.4631    35.3513 O.3    34 HOH   0.0000 
101 H1     -20.0546     6.4631    35.3513 H      34 HOH   0.0000 
102 H2     -21.3049     7.1102    35.9983 H      34 HOH   0.0000 
103 O      -24.1779    20.1082    43.7421 O.3    35 HOH   0.0000 
104 H1     -23.2179    20.1082    43.7421 H      35 HOH   0.0000 
105 H2     -24.4682    20.7552    44.3892 H      35 HOH   0.0000 
106 O       14.5420    31.6559    55.3401 O.3    36 HOH   0.0000 
107 H1      15.5020    31.6559    55.3401 H      36 HOH   0.0000 
108 H2      14.2517    32.3029    55.9871 H      36 HOH   0.0000 
109 O       -6.7143     9.1501     7.2969 O.3    37 HOH   0.0000 
110 H1      -5.7543     9.1501     7.2969 H      37 HOH   0.0000 
111 H2      -7.0046     9.7972     7.9440 H      37 HOH   0.0000 
112 O      -29.9515    13.2210    28.5966 O.3    38 HOH   0.0000 
113 H1     -28.9915    13.2210    28.5966 H      38 HOH   0.0000 
114 H2     -30.2418    13.8681    29.2436 H      38 HOH   0.0000 
115 O       -7.1229     3.4727    42.1707 O.3    39 HOH   0.0000 
116 H1      -6.1629     3.4727    42.1707 H      39 HOH   0.0000 
117 H2      -7.4132     4.1198    42.8178 H      39 HOH   0.0000 
118 O      -20.8860     4.9944    36.8633 O.3    40 HOH   0.0000 
119 H1     -19.9260     4.9944    36.8633 H      40 HOH   0.0000 
120 H2     -21.1762     5.6415    37.5103 H      40 HOH   0.0000 
121 O        2.8381    36.3767    54.9261 O.3    41 HOH   0.0000 
122 H1       3.7981    36.3767    54.9261 H      41 HOH   0.0000 
123 H2       2.5478    37.0238    55.5732 H      41 HOH   0.0000 
124 O        5.8342    30.6480    57.6011 O.3    42 HOH   0.0000 
125 H1       6.7942    30.6480    57.6011 H      42 HOH   0.0000 
126 H2       5.5440    31.2950    58.2481 H      42 HOH   0.0000 
127 O      -17.7271     2.5133    38.4724 O.3    43 HOH   0.0000 
128 H1     -16.7671     2.5133    38.4724 H      43 HOH   0.0000 
129 H2     -18.0174     3.1604    39.1195 H      43 HOH   0.0000 
130 O      -32.6778    28.9516    42.6403 O.3    44 HOH   0.0000 
131 H1     -31.7178    28.9516    42.6403 H      44 HOH   0.0000 
132 H2     -32.9681    29.5987    43.2874 H      44 HOH   0.0000 
133 O      -24.4824    18.4699    47.1646 O.3    45 HOH   0.0000 
134 H1     -23.5224    18.4699    47.1646 H      45 HOH   0.0000 
135 H2     -24.7726    19.1170    47.8117 H      45 HOH   0.0000 
136 O      -24.6556     8.7841    42.1229 O.3    46 HOH   0.0000 
137 H1     -23.6956     8.7841    42.1229 H      46 HOH   0.0000 
138 H2     -24.9459     9.4312    42.7699 H      46 HOH   0.0000 
139 O      -21.8906     3.0358    20.9042 O.3    47 HOH   0.0000 
140 H1     -20.9306     3.0358    20.9042 H      47 HOH   0.0000 
141 H2     -22.1809     3.6829    21.5512 H      47 HOH   0.0000 
142 O      -23.8585    25.7512    22.5080 O.3    48 HOH   0.0000 
143 H1     -22.8985    25.7512    22.5080 H      48 HOH   0.0000 
144 H2     -24.1488    26.3983    23.1550 H      48 HOH   0.0000 
145 O      -23.7595    20.8814    22.4078 O.3    49 HOH   0.0000 
146 H1     -22.7995    20.8814    22.4078 H      49 HOH   0.0000 
147 H2     -24.0497    21.5284    23.0549 H      49 HOH   0.0000 
148 O      -31.0265    13.1519    49.5618 O.3    50 HOH   0.0000 
149 H1     -30.0665    13.1519    49.5618 H      50 HOH   0.0000 
150 H2     -31.3168    13.7990    50.2088 H      50 HOH   0.0000 
151 O       -9.8100    24.5002    17.3885 O.3    51 HOH   0.0000 
152 H1      -8.8500    24.5002    17.3885 H      51 HOH   0.0000 
153 H2     -10.1003    25.1472    18.0356 H      51 HOH   0.0000 
154 O      -13.4236    20.0605    46.2154 O.3    52 HOH   0.0000 
155 H1     -12.4636    20.0605    46.2154 H      52 HOH   0.0000 
156 H2     -13.7139    20.7076    46.8624 H      52 HOH   0.0000 
157 O        2.0206    28.7029    35.2538 O.3    53 HOH   0.0000 
158 H1       2.9806    28.7029    35.2538 H      53 HOH   0.0000 
159 H2       1.7303    29.3499    35.9009 H      53 HOH   0.0000 
160 O       -4.6155     7.2990    34.1356 O.3    54 HOH   0.0000 
161 H1      -3.6555     7.2990    34.1356 H      54 HOH   0.0000 
162 H2      -4.9058     7.9460    34.7826 H      54 HOH   0.0000 
163 O       -3.8141    -1.1548    16.9037 O.3    55 HOH   0.0000 
164 H1      -2.8541    -1.1548    16.9037 H      55 HOH   0.0000 
165 H2      -4.1044    -0.5077    17.5508 H      55 HOH   0.0000 
166 O       -0.1543     3.8379    26.9267 O.3    56 HOH   0.0000 
167 H1       0.8057     3.8379    26.9267 H      56 HOH   0.0000 
168 H2      -0.4446     4.4850    27.5738 H      56 HOH   0.0000 
169 O        2.9140    21.4281    36.4552 O.3    57 HOH  -0.8340 
170 H1       2.8273    20.8831    37.2373 H      57 HOH   0.4170 
171 H2       2.5253    22.2670    36.7031 H      57 HOH   0.4170 
172 O      -13.7293     6.4762    22.0171 O.3    58 HOH   0.0000 
173 H1     -12.7693     6.4762    22.0171 H      58 HOH   0.0000 
174 H2     -14.0195     7.1233    22.6641 H      58 HOH   0.0000 
175 O       -6.8126     5.2010    34.1788 O.3    59 HOH   0.0000 
176 H1      -5.8526     5.2010    34.1788 H      59 HOH   0.0000 
177 H2      -7.1029     5.8481    34.8258 H      59 HOH   0.0000 
178 O       -6.1475     9.8654    33.8189 O.3    60 HOH   0.0000 
179 H1      -5.1875     9.8654    33.8189 H      60 HOH   0.0000 
180 H2      -6.4377    10.5124    34.4659 H      60 HOH   0.0000 
181 O      -16.6764    13.7060    48.1178 O.3    61 HOH   0.0000 
182 H1     -15.7164    13.7060    48.1178 H      61 HOH   0.0000 
183 H2     -16.9667    14.3531    48.7649 H      61 HOH   0.0000 
184 O      -16.9716     9.7458    17.3016 O.3    62 HOH   0.0000 
185 H1     -16.0116     9.7458    17.3016 H      62 HOH   0.0000 
186 H2     -17.2618    10.3928    17.9487 H      62 HOH   0.0000 
187 O       -3.1844     4.2214    27.5791 O.3    63 HOH   0.0000 
188 H1      -2.2244     4.2214    27.5791 H      63 HOH   0.0000 
189 H2      -3.4747     4.8685    28.2262 H      63 HOH   0.0000 
190 O       -9.0233     6.7666    33.8705 O.3    64 HOH   0.0000 
191 H1      -8.0633     6.7666    33.8705 H      64 HOH   0.0000 
192 H2      -9.3136     7.4137    34.5175 H      64 HOH   0.0000 
193 O      -12.7048    12.2932    46.9859 O.3    65 HOH   0.0000 
194 H1     -11.7448    12.2932    46.9859 H      65 HOH   0.0000 
195 H2     -12.9951    12.9402    47.6330 H      65 HOH   0.0000 
196 O       -6.9001    12.7829    44.6805 O.3    66 HOH   0.0000 
197 H1      -5.9401    12.7829    44.6805 H      66 HOH   0.0000 
198 H2      -7.1904    13.4300    45.3275 H      66 HOH   0.0000 
199 O       -5.9734    23.8893    47.2582 O.3    67 HOH   0.0000 
200 H1      -5.0134    23.8893    47.2582 H      67 HOH   0.0000 
201 H2      -6.2636    24.5364    47.9053 H      67 HOH   0.0000 
202 O       -3.2879    23.7034    16.5496 O.3    68 HOH   0.0000 
203 H1      -2.3279    23.7034    16.5496 H      68 HOH   0.0000 
204 H2      -3.5781    24.3505    17.1967 H      68 HOH   0.0000 
205 O       -6.3126     6.7580    21.3127 O.3    69 HOH   0.0000 
206 H1      -5.3526     6.7580    21.3127 H      69 HOH   0.0000 
207 H2      -6.6028     7.4051    21.9597 H      69 HOH   0.0000 
208 O       -3.8600    26.3729    17.3047 O.3    70 HOH   0.0000 
209 H1      -2.9000    26.3729    17.3047 H      70 HOH   0.0000 
210 H2      -4.1503    27.0200    17.9517 H      70 HOH   0.0000 
211 O      -23.6006    15.4109    34.4415 O.3    71 HOH   0.0000 
212 H1     -22.6406    15.4109    34.4415 H      71 HOH   0.0000 
213 H2     -23.8909    16.0580    35.0885 H      71 HOH   0.0000 
214 O       -9.7598    11.7367    47.6422 O.3    72 HOH   0.0000 
215 H1      -8.7998    11.7367    47.6422 H      72 HOH   0.0000 
216 H2     -10.0501    12.3838    48.2893 H      72 HOH   0.0000 
217 O        2.0859    23.3229    36.7070 O.3    73 HOH  -0.8340 
218 H1       2.8170    23.5087    36.1178 H      73 HOH   0.4170 
219 H2       1.6512    24.1676    36.8239 H      73 HOH   0.4170 
220 O       -6.5324    11.3070    12.0176 O.3    74 HOH   0.0000 
221 H1      -5.5724    11.3070    12.0176 H      74 HOH   0.0000 
222 H2      -6.8227    11.9541    12.6646 H      74 HOH   0.0000 
223 O      -14.2933    28.6726    17.3533 O.3    75 HOH   0.0000 
224 H1     -13.3333    28.6726    17.3533 H      75 HOH   0.0000 
225 H2     -14.5836    29.3197    18.0003 H      75 HOH   0.0000 
226 O       -1.6847    28.1005    16.1266 O.3    76 HOH   0.0000 
227 H1      -0.7247    28.1005    16.1266 H      76 HOH   0.0000 
228 H2      -1.9750    28.7475    16.7737 H      76 HOH   0.0000 
229 O       -0.3110    27.1996    46.9047 O.3    77 HOH   0.0000 
230 H1       0.6490    27.1996    46.9047 H      77 HOH   0.0000 
231 H2      -0.6013    27.8466    47.5518 H      77 HOH   0.0000 
232 O      -24.1257    18.5312    22.1798 O.3    78 HOH   0.0000 
233 H1     -23.1657    18.5312    22.1798 H      78 HOH   0.0000 
234 H2     -24.4159    19.1783    22.8268 H      78 HOH   0.0000 
235 O       -2.0861    11.3774    39.1407 O.3    79 HOH  -0.8340 
236 H1      -2.8083    10.7519    39.0822 H      79 HOH   0.4170 
237 H2      -2.3964    12.1474    38.6641 H      79 HOH   0.4170 
238 O        4.3343    32.7333    14.7329 O.3    80 HOH   0.0000 
239 H1       5.2943    32.7333    14.7329 H      80 HOH   0.0000 
240 H2       4.0440    33.3803    15.3799 H      80 HOH   0.0000 
241 O      -27.3500    12.7963    43.0130 O.3    81 HOH   0.0000 
242 H1     -26.3900    12.7963    43.0130 H      81 HOH   0.0000 
243 H2     -27.6403    13.4434    43.6600 H      81 HOH   0.0000 
244 O       -5.5899    23.3340    14.6438 O.3    82 HOH   0.0000 
245 H1      -4.6299    23.3340    14.6438 H      82 HOH   0.0000 
246 H2      -5.8802    23.9811    15.2908 H      82 HOH   0.0000 
247 O      -27.0134    15.3132    44.5758 O.3    83 HOH   0.0000 
248 H1     -26.0534    15.3132    44.5758 H      83 HOH   0.0000 
249 H2     -27.3037    15.9602    45.2229 H      83 HOH   0.0000 
250 O       -8.5375    17.2118     9.1092 O.3    84 HOH   0.0000 
251 H1      -7.5775    17.2118     9.1092 H      84 HOH   0.0000 
252 H2      -8.8278    17.8589     9.7563 H      84 HOH   0.0000 
253 O        9.1896     9.7073    41.2729 O.3    85 HOH   0.0000 
254 H1      10.1496     9.7073    41.2729 H      85 HOH   0.0000 
255 H2       8.8993    10.3543    41.9199 H      85 HOH   0.0000 
256 O       -2.8000    13.2284    43.7431 O.3    86 HOH  -0.8340 
257 H1      -2.0831    12.5965    43.7987 H      86 HOH   0.4170 
258 H2      -3.2965    13.0996    44.5513 H      86 HOH   0.4170 
259 O      -16.2905    29.1298    32.6419 O.3    87 HOH   0.0000 
260 H1     -15.3305    29.1298    32.6419 H      87 HOH   0.0000 
261 H2     -16.5807    29.7768    33.2889 H      87 HOH   0.0000 
262 O      -15.1472    28.0953    34.4366 O.3    88 HOH   0.0000 
263 H1     -14.1872    28.0953    34.4366 H      88 HOH   0.0000 
264 H2     -15.4375    28.7424    35.0837 H      88 HOH   0.0000 
265 O      -26.6142    12.5904    35.0878 O.3    89 HOH   0.0000 
266 H1     -25.6542    12.5904    35.0878 H      89 HOH   0.0000 
267 H2     -26.9045    13.2375    35.7349 H      89 HOH   0.0000 
268 O       -3.2244    26.4747    20.2334 O.3    90 HOH   0.0000 
269 H1      -2.2644    26.4747    20.2334 H      90 HOH   0.0000 
270 H2      -3.5147    27.1217    20.8805 H      90 HOH   0.0000 
271 O       -4.9475    10.4349    11.0179 O.3    91 HOH   0.0000 
272 H1      -3.9875    10.4349    11.0179 H      91 HOH   0.0000 
273 H2      -5.2378    11.0820    11.6649 H      91 HOH   0.0000 
274 O       -3.9602     2.5994    29.7088 O.3    92 HOH   0.0000 
275 H1      -3.0002     2.5994    29.7088 H      92 HOH   0.0000 
276 H2      -4.2505     3.2465    30.3558 H      92 HOH   0.0000 
277 O      -24.8092    11.5928    42.2048 O.3    93 HOH   0.0000 
278 H1     -23.8492    11.5928    42.2048 H      93 HOH   0.0000 
279 H2     -25.0995    12.2399    42.8519 H      93 HOH   0.0000 
280 O       -4.3336    17.2927    14.5270 O.3    94 HOH   0.0000 
281 H1      -3.3736    17.2927    14.5270 H      94 HOH   0.0000 
282 H2      -4.6239    17.9397    15.1740 H      94 HOH   0.0000 
283 O      -11.9157    22.8600    11.8225 O.3    95 HOH   0.0000 
284 H1     -10.9557    22.8600    11.8225 H      95 HOH   0.0000 
285 H2     -12.2060    23.5071    12.4696 H      95 HOH   0.0000 
286 O        1.7585    11.7087    34.7159 O.3    96 HOH  -0.8340 
287 H1       1.6718    11.1636    35.4980 H      96 HOH   0.4170 
288 H2       1.3699    12.5476    34.9637 H      96 HOH   0.4170 
289 O       -6.0058     3.2751    32.0411 O.3    97 HOH   0.0000 
290 H1      -5.0458     3.2751    32.0411 H      97 HOH   0.0000 
291 H2      -6.2961     3.9222    32.6881 H      97 HOH   0.0000 
292 O       13.2955    21.7405    54.1039 O.3    98 HOH   0.0000 
293 H1      14.2555    21.7405    54.1039 H      98 HOH   0.0000 
294 H2      13.0052    22.3875    54.7510 H      98 HOH   0.0000 
295 O      -12.7480    24.3039    13.9852 O.3    99 HOH   0.0000 
296 H1     -11.7880    24.3039    13.9852 H      99 HOH   0.0000 
297 H2     -13.0383    24.9510    14.6322 H      99 HOH   0.0000 
298 O      -20.0267    14.0177    15.8516 O.3   100 HOH   0.0000 
299 H1     -19.0667    14.0177    15.8516 H     100 HOH   0.0000 
300 H2     -20.3170    14.6648    16.4986 H     100 HOH   0.0000 
301 O       -8.6065     7.6030    22.5252 O.3   101 HOH   0.0000 
302 H1      -7.6465     7.6030    22.5252 H     101 HOH   0.0000 
303 H2      -8.8967     8.2501    23.1723 H     101 HOH   0.0000 
304 O        0.5314    16.7760    32.7757 O.3   102 HOH  -0.8340 
305 H1      -0.2515    16.7744    32.2249 H     102 HOH   0.4170 
306 H2       1.1111    17.4187    32.3669 H     102 HOH   0.4170 
307 O       -3.4703    13.5724    21.1166 O.3   103 HOH   0.0000 
308 H1      -2.5103    13.5724    21.1166 H     103 HOH   0.0000 
309 H2      -3.7606    14.2194    21.7636 H     103 HOH   0.0000 
310 O        7.9422     7.2794    16.4850 O.3   104 HOH   0.0000 
311 H1       8.9022     7.2794    16.4850 H     104 HOH   0.0000 
312 H2       7.6520     7.9265    17.1320 H     104 HOH   0.0000 
313 O      -23.5140    11.9581    38.1688 O.3   105 HOH   0.0000 
314 H1     -22.5540    11.9581    38.1688 H     105 HOH   0.0000 
315 H2     -23.8043    12.6052    38.8158 H     105 HOH   0.0000 
316 O        7.5262    24.6766    23.3301 O.3   106 HOH   0.0000 
317 H1       8.4862    24.6766    23.3301 H     106 HOH   0.0000 
318 H2       7.2359    25.3237    23.9772 H     106 HOH   0.0000 
319 O      -23.7320     8.6706    37.4194 O.3   107 HOH   0.0000 
320 H1     -22.7720     8.6706    37.4194 H     107 HOH   0.0000 
321 H2     -24.0223     9.3176    38.0665 H     107 HOH   0.0000 
322 O      -27.8837    14.5289    34.4526 O.3   108 HOH   0.0000 
323 H1     -26.9237    14.5289    34.4526 H     108 HOH   0.0000 
324 H2     -28.1739    15.1760    35.0996 H     108 HOH   0.0000 
325 O       -7.8083    24.6758    15.3848 O.3   109 HOH   0.0000 
326 H1      -6.8483    24.6758    15.3848 H     109 HOH   0.0000 
327 H2      -8.0986    25.3229    16.0318 H     109 HOH   0.0000 
328 O      -26.3234    16.8157    33.7144 O.3   110 HOH   0.0000 
329 H1     -25.3634    16.8157    33.7144 H     110 HOH   0.0000 
330 H2     -26.6137    17.4628    34.3614 H     110 HOH   0.0000 
331 O      -28.4451    15.9073    27.5007 O.3   111 HOH   0.0000 
332 H1     -27.4851    15.9073    27.5007 H     111 HOH   0.0000 
333 H2     -28.7354    16.5543    28.1477 H     111 HOH   0.0000 
334 O       -5.7755    27.3234    16.8895 O.3   112 HOH   0.0000 
335 H1      -4.8155    27.3234    16.8895 H     112 HOH   0.0000 
336 H2      -6.0658    27.9705    17.5366 H     112 HOH   0.0000 
337 O        1.0009    11.1433    32.4658 O.3   113 HOH  -0.8340 
338 H1       1.3982    11.2717    33.3271 H     113 HOH   0.4170 
339 H2       1.7361    10.9276    31.8921 H     113 HOH   0.4170 
340 O      -26.8595    17.6822    39.8648 O.3   114 HOH   0.0000 
341 H1     -25.8995    17.6822    39.8648 H     114 HOH   0.0000 
342 H2     -27.1498    18.3293    40.5118 H     114 HOH   0.0000 
343 O       -2.9608     0.3621    19.3237 O.3   115 HOH   0.0000 
344 H1      -2.0008     0.3621    19.3237 H     115 HOH   0.0000 
345 H2      -3.2510     1.0091    19.9707 H     115 HOH   0.0000 
346 O      -27.8469    20.8544    31.7617 O.3   116 HOH   0.0000 
347 H1     -26.8869    20.8544    31.7617 H     116 HOH   0.0000 
348 H2     -28.1372    21.5015    32.4087 H     116 HOH   0.0000 
349 O       -9.7936    29.6843    21.6583 O.3   117 HOH   0.0000 
350 H1      -8.8336    29.6843    21.6583 H     117 HOH   0.0000 
351 H2     -10.0838    30.3313    22.3054 H     117 HOH   0.0000 
352 O       -3.5205     8.9463    39.0427 O.3   118 HOH   0.0000 
353 H1      -2.5605     8.9463    39.0427 H     118 HOH   0.0000 
354 H2      -3.8108     9.5934    39.6897 H     118 HOH   0.0000 
355 O        7.2048     7.7440    18.2767 O.3   119 HOH   0.0000 
356 H1       8.1648     7.7440    18.2767 H     119 HOH   0.0000 
357 H2       6.9145     8.3911    18.9238 H     119 HOH   0.0000 
358 O      -23.4389     4.3118    23.1182 O.3   120 HOH   0.0000 
359 H1     -22.4789     4.3118    23.1182 H     120 HOH   0.0000 
360 H2     -23.7291     4.9588    23.7652 H     120 HOH   0.0000 
361 O       -5.8345     3.5439    36.6733 O.3   121 HOH   0.0000 
362 H1      -4.8745     3.5439    36.6733 H     121 HOH   0.0000 
363 H2      -6.1248     4.1909    37.3203 H     121 HOH   0.0000 
364 O      -16.5245    30.3556    24.6907 O.3   122 HOH   0.0000 
365 H1     -15.5645    30.3556    24.6907 H     122 HOH   0.0000 
366 H2     -16.8147    31.0026    25.3378 H     122 HOH   0.0000 
367 O      -10.8005    30.9902    29.0057 O.3   123 HOH   0.0000 
368 H1      -9.8405    30.9902    29.0057 H     123 HOH   0.0000 
369 H2     -11.0907    31.6372    29.6527 H     123 HOH   0.0000 
370 O      -19.3806    16.4191    32.5776 O.3   124 HOH   0.0000 
371 H1     -18.4206    16.4191    32.5776 H     124 HOH   0.0000 
372 H2     -19.6708    17.0662    33.2247 H     124 HOH   0.0000 
373 O       -1.6649    29.5922    35.7645 O.3   125 HOH   0.0000 
374 H1      -0.7049    29.5922    35.7645 H     125 HOH   0.0000 
375 H2      -1.9552    30.2393    36.4115 H     125 HOH   0.0000 
376 O      -21.6199    15.6344    32.2428 O.3   126 HOH   0.0000 
377 H1     -20.6599    15.6344    32.2428 H     126 HOH   0.0000 
378 H2     -21.9102    16.2814    32.8898 H     126 HOH   0.0000 
379 O       -6.1038    12.6396    10.2607 O.3   127 HOH   0.0000 
380 H1      -5.1438    12.6396    10.2607 H     127 HOH   0.0000 
381 H2      -6.3940    13.2867    10.9077 H     127 HOH   0.0000 
382 O      -23.8532    13.1196    35.2615 O.3   128 HOH   0.0000 
383 H1     -22.8932    13.1196    35.2615 H     128 HOH   0.0000 
384 H2     -24.1435    13.7667    35.9086 H     128 HOH   0.0000 
385 O       -4.2304    29.0200    38.6183 O.3   129 HOH   0.0000 
386 H1      -3.2704    29.0200    38.6183 H     129 HOH   0.0000 
387 H2      -4.5206    29.6670    39.2654 H     129 HOH   0.0000 
388 O      -21.6868    14.0259    17.9099 O.3   130 HOH   0.0000 
389 H1     -20.7268    14.0259    17.9099 H     130 HOH   0.0000 
390 H2     -21.9770    14.6729    18.5570 H     130 HOH   0.0000 
391 O       10.9661    15.1299    42.7523 O.3   131 HOH   0.0000 
392 H1      11.9261    15.1299    42.7523 H     131 HOH   0.0000 
393 H2      10.6758    15.7769    43.3994 H     131 HOH   0.0000 
394 O      -16.9979     8.5602    15.0565 O.3   132 HOH   0.0000 
395 H1     -16.0379     8.5602    15.0565 H     132 HOH   0.0000 
396 H2     -17.2882     9.2072    15.7035 H     132 HOH   0.0000 
397 O      -15.2808    26.0973    43.1059 O.3   133 HOH   0.0000 
398 H1     -14.3208    26.0973    43.1059 H     133 HOH   0.0000 
399 H2     -15.5710    26.7444    43.7530 H     133 HOH   0.0000 
400 O        8.9223    12.3504    15.0684 O.3   134 HOH   0.0000 
401 H1       9.8823    12.3504    15.0684 H     134 HOH   0.0000 
402 H2       8.6320    12.9974    15.7155 H     134 HOH   0.0000 
403 O        1.5505    29.6089    16.2746 O.3   135 HOH   0.0000 
404 H1       2.5105    29.6089    16.2746 H     135 HOH   0.0000 
405 H2       1.2602    30.2560    16.9216 H     135 HOH   0.0000 
406 O       -4.9948    -0.0198    29.0705 O.3   136 HOH   0.0000 
407 H1      -4.0348    -0.0198    29.0705 H     136 HOH   0.0000 
408 H2      -5.2851     0.6273    29.7175 H     136 HOH   0.0000 
409 O      -27.2261    14.8366    40.1357 O.3   137 HOH   0.0000 
410 H1     -26.2661    14.8366    40.1357 H     137 HOH   0.0000 
411 H2     -27.5164    15.4837    40.7828 H     137 HOH   0.0000 
412 O       12.6229    16.9802    32.6833 O.3   138 HOH   0.0000 
413 H1      13.5829    16.9802    32.6833 H     138 HOH   0.0000 
414 H2      12.3327    17.6272    33.3304 H     138 HOH   0.0000 
415 O        4.9170    11.6271    46.1083 O.3   139 HOH   0.0000 
416 H1       5.8770    11.6271    46.1083 H     139 HOH   0.0000 
417 H2       4.6268    12.2742    46.7553 H     139 HOH   0.0000 
418 O      -19.5724     7.0225    13.5698 O.3   140 HOH   0.0000 
419 H1     -18.6124     7.0225    13.5698 H     140 HOH   0.0000 
420 H2     -19.8627     7.6695    14.2168 H     140 HOH   0.0000 
421 O      -27.4394    17.9454    31.6560 O.3   141 HOH   0.0000 
422 H1     -26.4794    17.9454    31.6560 H     141 HOH   0.0000 
423 H2     -27.7297    18.5924    32.3030 H     141 HOH   0.0000 
424 O       -5.5658    20.6095    12.9113 O.3   142 HOH   0.0000 
425 H1      -4.6058    20.6095    12.9113 H     142 HOH   0.0000 
426 H2      -5.8561    21.2566    13.5584 H     142 HOH   0.0000 
427 O      -22.3644    10.8488    34.0641 O.3   143 HOH   0.0000 
428 H1     -21.4044    10.8488    34.0641 H     143 HOH   0.0000 
429 H2     -22.6547    11.4959    34.7111 H     143 HOH   0.0000 
430 O        7.7078    26.1904    15.0165 O.3   144 HOH   0.0000 
431 H1       8.6678    26.1904    15.0165 H     144 HOH   0.0000 
432 H2       7.4176    26.8374    15.6635 H     144 HOH   0.0000 
433 O       -2.7360    12.2567    28.0263 O.3   145 HOH   0.0000 
434 H1      -1.7760    12.2567    28.0263 H     145 HOH   0.0000 
435 H2      -3.0263    12.9038    28.6733 H     145 HOH   0.0000 
436 O        6.8283    25.1924    17.5672 O.3   146 HOH   0.0000 
437 H1       7.7883    25.1924    17.5672 H     146 HOH   0.0000 
438 H2       6.5380    25.8395    18.2143 H     146 HOH   0.0000 
439 O        2.2625    30.7047    11.6689 O.3   147 HOH   0.0000 
440 H1       3.2225    30.7047    11.6689 H     147 HOH   0.0000 
441 H2       1.9723    31.3517    12.3159 H     147 HOH   0.0000 
442 O       -8.8014    22.1524    12.1298 O.3   148 HOH   0.0000 
443 H1      -7.8414    22.1524    12.1298 H     148 HOH   0.0000 
444 H2      -9.0917    22.7994    12.7768 H     148 HOH   0.0000 
445 O       10.1004    17.4246    19.5734 O.3   149 HOH   0.0000 
446 H1      11.0604    17.4246    19.5734 H     149 HOH   0.0000 
447 H2       9.8101    18.0716    20.2204 H     149 HOH   0.0000 
448 O      -34.3983    27.2468    41.9825 O.3   150 HOH   0.0000 
449 H1     -33.4383    27.2468    41.9825 H     150 HOH   0.0000 
450 H2     -34.6886    27.8938    42.6296 H     150 HOH   0.0000 
451 O      -21.3903    13.3176    32.0687 O.3   151 HOH   0.0000 
452 H1     -20.4303    13.3176    32.0687 H     151 HOH   0.0000 
453 H2     -21.6806    13.9646    32.7157 H     151 HOH   0.0000 
454 O      -28.2126    17.8644    38.0591 O.3   152 HOH   0.0000 
455 H1     -27.2526    17.8644    38.0591 H     152 HOH   0.0000 
456 H2     -28.5029    18.5115    38.7061 H     152 HOH   0.0000 
457 O       -4.2359    14.8025     9.9544 O.3   153 HOH   0.0000 
458 H1      -3.2759    14.8025     9.9544 H     153 HOH   0.0000 
459 H2      -4.5262    15.4495    10.6015 H     153 HOH   0.0000 
460 O      -14.9681    28.4626    39.2408 O.3   154 HOH   0.0000 
461 H1     -14.0081    28.4626    39.2408 H     154 HOH   0.0000 
462 H2     -15.2584    29.1097    39.8878 H     154 HOH   0.0000 
463 O        6.5900    33.2185    41.9878 O.3   155 HOH   0.0000 
464 H1       7.5500    33.2185    41.9878 H     155 HOH   0.0000 
465 H2       6.2997    33.8655    42.6348 H     155 HOH   0.0000 
466 O      -12.7625    28.0015    38.4405 O.3   156 HOH   0.0000 
467 H1     -11.8025    28.0015    38.4405 H     156 HOH   0.0000 
468 H2     -13.0528    28.6485    39.0876 H     156 HOH   0.0000 
469 O       12.0417    34.3131    38.7844 O.3   157 HOH   0.0000 
470 H1      13.0017    34.3131    38.7844 H     157 HOH   0.0000 
471 H2      11.7515    34.9601    39.4314 H     157 HOH   0.0000 
472 O      -29.1306    15.4588    36.6692 O.3   158 HOH   0.0000 
473 H1     -28.1706    15.4588    36.6692 H     158 HOH   0.0000 
474 H2     -29.4208    16.1059    37.3163 H     158 HOH   0.0000 
475 O       -5.3254    33.2163    18.1868 O.3   159 HOH   0.0000 
476 H1      -4.3654    33.2163    18.1868 H     159 HOH   0.0000 
477 H2      -5.6156    33.8634    18.8339 H     159 HOH   0.0000 
478 O       -3.6291    26.6044    45.4551 O.3   160 HOH   0.0000 
479 H1      -2.6691    26.6044    45.4551 H     160 HOH   0.0000 
480 H2      -3.9194    27.2514    46.1021 H     160 HOH   0.0000 
481 O       -7.2165    20.6426    12.0011 O.3   161 HOH   0.0000 
482 H1      -6.2565    20.6426    12.0011 H     161 HOH   0.0000 
483 H2      -7.5067    21.2897    12.6482 H     161 HOH   0.0000 
484 O        5.3554    23.9787    16.3272 O.3   162 HOH   0.0000 
485 H1       6.3154    23.9787    16.3272 H     162 HOH   0.0000 
486 H2       5.0651    24.6257    16.9742 H     162 HOH   0.0000 
487 O       10.8308    36.9700    38.6392 O.3   163 HOH   0.0000 
488 H1      11.7908    36.9700    38.6392 H     163 HOH   0.0000 
489 H2      10.5405    37.6170    39.2862 H     163 HOH   0.0000 
490 O       12.3644    29.9885    40.4466 O.3   164 HOH   0.0000 
491 H1      13.3244    29.9885    40.4466 H     164 HOH   0.0000 
492 H2      12.0741    30.6356    41.0936 H     164 HOH   0.0000 
493 O       -3.1308    15.1899    25.1423 O.3   165 HOH   0.0000 
494 H1      -2.1708    15.1899    25.1423 H     165 HOH   0.0000 
495 H2      -3.4211    15.8369    25.7893 H     165 HOH   0.0000 
496 O      -25.5136    12.6653    39.9689 O.3   166 HOH   0.0000 
497 H1     -24.5536    12.6653    39.9689 H     166 HOH   0.0000 
498 H2     -25.8038    13.3124    40.6159 H     166 HOH   0.0000 
499 O       12.4779    37.3349    37.0768 O.3   167 HOH   0.0000 
500 H1      13.4379    37.3349    37.0768 H     167 HOH   0.0000 
501 H2      12.1877    37.9819    37.7239 H     167 HOH   0.0000 
502 O       -4.5379     4.1003    38.1949 O.3   168 HOH   0.0000 
503 H1      -3.5779     4.1003    38.1949 H     168 HOH   0.0000 
504 H2      -4.8282     4.7473    38.8420 H     168 HOH   0.0000 
505 O       15.1691    34.3033    37.0260 O.3   169 HOH   0.0000 
506 H1      16.1291    34.3033    37.0260 H     169 HOH   0.0000 
507 H2      14.8788    34.9503    37.6731 H     169 HOH   0.0000 
508 O       14.5019    36.3254    37.0965 O.3   170 HOH   0.0000 
509 H1      15.4619    36.3254    37.0965 H     170 HOH   0.0000 
510 H2      14.2116    36.9724    37.7436 H     170 HOH   0.0000 
511 O        0.4735    25.3496    10.0645 O.3   171 HOH   0.0000 
512 H1       1.4335    25.3496    10.0645 H     171 HOH   0.0000 
513 H2       0.1832    25.9966    10.7116 H     171 HOH   0.0000 
514 O        3.5358    23.6766    12.7138 O.3   172 HOH   0.0000 
515 H1       4.4958    23.6766    12.7138 H     172 HOH   0.0000 
516 H2       3.2455    24.3236    13.3609 H     172 HOH   0.0000 
517 O      -29.5749    16.9345    31.6680 O.3   173 HOH   0.0000 
518 H1     -28.6149    16.9345    31.6680 H     173 HOH   0.0000 
519 H2     -29.8652    17.5816    32.3150 H     173 HOH   0.0000 
520 O      -14.2592    33.2452    25.6881 O.3   174 HOH   0.0000 
521 H1     -13.2992    33.2452    25.6881 H     174 HOH   0.0000 
522 H2     -14.5494    33.8922    26.3351 H     174 HOH   0.0000 
@<TRIPOS>BOND
  1   1   2  1   
  2   1   3  1   
  3   4   5  1   
  4   4   6  1   
  5   7   8  1   
  6   7   9  1   
  7  10  11  1   
  8  10  12  1   
  9  13  14  1   
 10  13  15  1   
 11  16  17  1   
 12  16  18  1   
 13  19  20  1   
 14  19  21  1   
 15  22  23  1   
 16  22  24  1   
 17  25  26  1   
 18  25  27  1   
 19  28  29  1   
 20  28  30  1   
 21  31  32  1   
 22  31  33  1   
 23  34  35  1   
 24  34  36  1   
 25  37  38  1   
 26  37  39  1   
 27  40  41  1   
 28  40  42  1   
 29  43  44  1   
 30  43  45  1   
 31  46  47  1   
 32  46  48  1   
 33  49  50  1   
 34  49  51  1   
 35  52  53  1   
 36  52  54  1   
 37  55  56  1   
 38  55  57  1   
 39  58  59  1   
 40  58  60  1   
 41  61  62  1   
 42  61  63  1   
 43  64  65  1   
 44  64  66  1   
 45  67  68  1   
 46  67  69  1   
 47  70  71  1   
 48  70  72  1   
 49  73  74  1   
 50  73  75  1   
 51  76  77  1   
 52  76  78  1   
 53  79  80  1   
 54  79  81  1   
 55  82  83  1   
 56  82  84  1   
 57  85  86  1   
 58  85  87  1   
 59  88  89  1   
 60  88  90  1   
 61  91  92  1   
 62  91  93  1   
 63  94  95  1   
 64  94  96  1   
 65  97  98  1   
 66  97  99  1   
 67 100 101  1   
 68 100 102  1   
 69 103 104  1   
 70 103 105  1   
 71 106 107  1   
 72 106 108  1   
 73 109 110  1   
 74 109 111  1   
 75 112 113  1   
 76 112 114  1   
 77 115 116  1   
 78 115 117  1   
 79 118 119  1   
 80 118 120  1   
 81 121 122  1   
 82 121 123  1   
 83 124 125  1   
 84 124 126  1   
 85 127 128  1   
 86 127 129  1   
 87 130 131  1   
 88 130 132  1   
 89 133 134  1   
 90 133 135  1   
 91 136 137  1   
 92 136 138  1   
 93 139 140  1   
 94 139 141  1   
 95 142 143  1   
 96 142 144  1   
 97 145 146  1   
 98 145 147  1   
 99 148 149  1   
100 148 150  1   
101 151 152  1   
102 151 153  1   
103 154 155  1   
104 154 156  1   
105 157 158  1   
106 157 159  1   
107 160 161  1   
108 160 162  1   
109 163 164  1   
110 163 165  1   
111 166 167  1   
112 166 168  1   
113 169 170  1   
114 169 171  1   
115 172 173  1   
116 172 174  1   
117 175 176  1   
118 175 177  1   
119 178 179  1   
120 178 180  1   
121 181 182  1   
122 181 183  1   
123 184 185  1   
124 184 186  1   
125 187 188  1   
126 187 189  1   
127 190 191  1   
128 190 192  1   
129 193 194  1   
130 193 195  1   
131 196 197  1   
132 196 198  1   
133 199 200  1   
134 199 201  1   
135 202 203  1   
136 202 204  1   
137 205 206  1   
138 205 207  1   
139 208 209  1   
140 208 210  1   
141 211 212  1   
142 211 213  1   
143 214 215  1   
144 214 216  1   
145 217 218  1   
146 217 219  1   
147 220 221  1   
148 220 222  1   
149 223 224  1   
150 223 225  1   
151 226 227  1   
152 226 228  1   
153 229 230  1   
154 229 231  1   
155 232 233  1   
156 232 234  1   
157 235 236  1   
158 235 237  1   
159 238 239  1   
160 238 240  1   
161 241 242  1   
162 241 243  1   
163 244 245  1   
164 244 246  1   
165 247 248  1   
166 247 249  1   
167 250 251  1   
168 250 252  1   
169 253 254  1   
170 253 255  1   
171 256 257  1   
172 256 258  1   
173 259 260  1   
174 259 261  1   
175 262 263  1   
176 262 264  1   
177 265 266  1   
178 265 267  1   
179 268 269  1   
180 268 270  1   
181 271 272  1   
182 271 273  1   
183 274 275  1   
184 274 276  1   
185 277 278  1   
186 277 279  1   
187 280 281  1   
188 280 282  1   
189 283 284  1   
190 283 285  1   
191 286 287  1   
192 286 288  1   
193 289 290  1   
194 289 291  1   
195 292 293  1   
196 292 294  1   
197 295 296  1   
198 295 297  1   
199 298 299  1   
200 298 300  1   
201 301 302  1   
202 301 303  1   
203 304 305  1   
204 304 306  1   
205 307 308  1   
206 307 309  1   
207 310 311  1   
208 310 312  1   
209 313 314  1   
210 313 315  1   
211 316 317  1   
212 316 318  1   
213 319 320  1   
214 319 321  1   
215 322 323  1   
216 322 324  1   
217 325 326  1   
218 325 327  1   
219 328 329  1   
220 328 330  1   
221 331 332  1   
222 331 333  1   
223 334 335  1   
224 334 336  1   
225 337 338  1   
226 337 339  1   
227 340 341  1   
228 340 342  1   
229 343 344  1   
230 343 345  1   
231 346 347  1   
232 346 348  1   
233 349 350  1   
234 349 351  1   
235 352 353  1   
236 352 354  1   
237 355 356  1   
238 355 357  1   
239 358 359  1   
240 358 360  1   
241 361 362  1   
242 361 363  1   
243 364 365  1   
244 364 366  1   
245 367 368  1   
246 367 369  1   
247 370 371  1   
248 370 372  1   
249 373 374  1   
250 373 375  1   
251 376 377  1   
252 376 378  1   
253 379 380  1   
254 379 381  1   
255 382 383  1   
256 382 384  1   
257 385 386  1   
258 385 387  1   
259 388 389  1   
260 388 390  1   
261 391 392  1   
262 391 393  1   
263 394 395  1   
264 394 396  1   
265 397 398  1   
266 397 399  1   
267 400 401  1   
268 400 402  1   
269 403 404  1   
270 403 405  1   
271 406 407  1   
272 406 408  1   
273 409 410  1   
274 409 411  1   
275 412 413  1   
276 412 414  1   
277 415 416  1   
278 415 417  1   
279 418 419  1   
280 418 420  1   
281 421 422  1   
282 421 423  1   
283 424 425  1   
284 424 426  1   
285 427 428  1   
286 427 429  1   
287 430 431  1   
288 430 432  1   
289 433 434  1   
290 433 435  1   
291 436 437  1   
292 436 438  1   
293 439 440  1   
294 439 441  1   
295 442 443  1   
296 442 444  1   
297 445 446  1   
298 445 447  1   
299 448 449  1   
300 448 450  1   
301 451 452  1   
302 451 453  1   
303 454 455  1   
304 454 456  1   
305 457 458  1   
306 457 459  1   
307 460 461  1   
308 460 462  1   
309 463 464  1   
310 463 465  1   
311 466 467  1   
312 466 468  1   
313 469 470  1   
314 469 471  1   
315 472 473  1   
316 472 474  1   
317 475 476  1   
318 475 477  1   
319 478 479  1   
320 478 480  1   
321 481 482  1   
322 481 483  1   
323 484 485  1   
324 484 486  1   
325 487 488  1   
326 487 489  1   
327 490 491  1   
328 490 492  1   
329 493 494  1   
330 493 495  1   
331 496 497  1   
332 496 498  1   
333 499 500  1   
334 499 501  1   
335 502 503  1   
336 502 504  1   
337 505 506  1   
338 505 507  1   
339 508 509  1   
340 508 510  1   
341 511 512  1   
342 511 513  1   
343 514 515  1   
344 514 516  1   
345 517 518  1   
346 517 519  1   
347 520 521  1   
348 520 522  1   
@<TRIPOS>SUBSTRUCTURE
  1 HOH   1 GROUP 4 A **** 0
  2 HOH   4 GROUP 4 A **** 0
  3 HOH   7 GROUP 4 A **** 0
  4 HOH  10 GROUP 4 A **** 0
  5 HOH  13 GROUP 4 A **** 0
  6 HOH  16 GROUP 4 A **** 0
  7 HOH  19 GROUP 4 A **** 0
  8 HOH  22 GROUP 4 A **** 0
  9 HOH  25 GROUP 4 A **** 0
 10 HOH  28 GROUP 4 A **** 0
 11 HOH  31 GROUP 4 A **** 0
 12 HOH  34 GROUP 4 A **** 0
 13 HOH  37 GROUP 4 A **** 0
 14 HOH  40 GROUP 4 A **** 0
 15 HOH  43 GROUP 4 A **** 0
 16 HOH  46 GROUP 4 A **** 0
 17 HOH  49 GROUP 4 A **** 0
 18 HOH  52 GROUP 4 A **** 0
 19 HOH  55 GROUP 4 A **** 0
 20 HOH  58 GROUP 4 A **** 0
 21 HOH  61 GROUP 4 A **** 0
 22 HOH  64 GROUP 4 A **** 0
 23 HOH  67 GROUP 4 A **** 0
 24 HOH  70 GROUP 4 A **** 0
 25 HOH  73 GROUP 4 A **** 0
 26 HOH  76 GROUP 4 A **** 0
 27 HOH  79 GROUP 4 A **** 0
 28 HOH  82 GROUP 4 A **** 0
 29 HOH  85 GROUP 4 A **** 0
 30 HOH  88 GROUP 4 A **** 0
 31 HOH  91 GROUP 4 A **** 0
 32 HOH  94 GROUP 4 A **** 0
 33 HOH  97 GROUP 4 A **** 0
 34 HOH 100 GROUP 4 A **** 0
 35 HOH 103 GROUP 4 A **** 0
 36 HOH 106 GROUP 4 A **** 0
 37 HOH 109 GROUP 4 A **** 0
 38 HOH 112 GROUP 4 A **** 0
 39 HOH 115 GROUP 4 A **** 0
 40 HOH 118 GROUP 4 A **** 0
 41 HOH 121 GROUP 4 A **** 0
 42 HOH 124 GROUP 4 A **** 0
 43 HOH 127 GROUP 4 A **** 0
 44 HOH 130 GROUP 4 A **** 0
 45 HOH 133 GROUP 4 A **** 0
 46 HOH 136 GROUP 4 A **** 0
 47 HOH 139 GROUP 4 A **** 0
 48 HOH 142 GROUP 4 A **** 0
 49 HOH 145 GROUP 4 A **** 0
 50 HOH 148 GROUP 4 A **** 0
 51 HOH 151 GROUP 4 A **** 0
 52 HOH 154 GROUP 4 A **** 0
 53 HOH 157 GROUP 4 A **** 0
 54 HOH 160 GROUP 4 A **** 0
 55 HOH 163 GROUP 4 A **** 0
 56 HOH 166 GROUP 4 A **** 0
 57 HOH 169 GROUP 4 A **** 0
 58 HOH 172 GROUP 4 A **** 0
 59 HOH 175 GROUP 4 A **** 0
 60 HOH 178 GROUP 4 A **** 0
 61 HOH 181 GROUP 4 A **** 0
 62 HOH 184 GROUP 4 A **** 0
 63 HOH 187 GROUP 4 A **** 0
 64 HOH 190 GROUP 4 A **** 0
 65 HOH 193 GROUP 4 A **** 0
 66 HOH 196 GROUP 4 A **** 0
 67 HOH 199 GROUP 4 A **** 0
 68 HOH 202 GROUP 4 A **** 0
 69 HOH 205 GROUP 4 A **** 0
 70 HOH 208 GROUP 4 A **** 0
 71 HOH 211 GROUP 4 A **** 0
 72 HOH 214 GROUP 4 A **** 0
 73 HOH 217 GROUP 4 A **** 0
 74 HOH 220 GROUP 4 A **** 0
 75 HOH 223 GROUP 4 A **** 0
 76 HOH 226 GROUP 4 A **** 0
 77 HOH 229 GROUP 4 A **** 0
 78 HOH 232 GROUP 4 A **** 0
 79 HOH 235 GROUP 4 A **** 0
 80 HOH 238 GROUP 4 A **** 0
 81 HOH 241 GROUP 4 A **** 0
 82 HOH 244 GROUP 4 A **** 0
 83 HOH 247 GROUP 4 A **** 0
 84 HOH 250 GROUP 4 A **** 0
 85 HOH 253 GROUP 4 A **** 0
 86 HOH 256 GROUP 4 A **** 0
 87 HOH 259 GROUP 4 A **** 0
 88 HOH 262 GROUP 4 A **** 0
 89 HOH 265 GROUP 4 A **** 0
 90 HOH 268 GROUP 4 A **** 0
 91 HOH 271 GROUP 4 A **** 0
 92 HOH 274 GROUP 4 A **** 0
 93 HOH 277 GROUP 4 A **** 0
 94 HOH 280 GROUP 4 A **** 0
 95 HOH 283 GROUP 4 A **** 0
 96 HOH 286 GROUP 4 A **** 0
 97 HOH 289 GROUP 4 A **** 0
 98 HOH 292 GROUP 4 A **** 0
 99 HOH 295 GROUP 4 A **** 0
100 HOH 298 GROUP 4 A **** 0
101 HOH 301 GROUP 4 A **** 0
102 HOH 304 GROUP 4 A **** 0
103 HOH 307 GROUP 4 A **** 0
104 HOH 310 GROUP 4 A **** 0
105 HOH 313 GROUP 4 A **** 0
106 HOH 316 GROUP 4 A **** 0
107 HOH 319 GROUP 4 A **** 0
108 HOH 322 GROUP 4 A **** 0
109 HOH 325 GROUP 4 A **** 0
110 HOH 328 GROUP 4 A **** 0
111 HOH 331 GROUP 4 A **** 0
112 HOH 334 GROUP 4 A **** 0
113 HOH 337 GROUP 4 A **** 0
114 HOH 340 GROUP 4 A **** 0
115 HOH 343 GROUP 4 A **** 0
116 HOH 346 GROUP 4 A **** 0
117 HOH 349 GROUP 4 A **** 0
118 HOH 352 GROUP 4 A **** 0
119 HOH 355 GROUP 4 A **** 0
120 HOH 358 GROUP 4 A **** 0
121 HOH 361 GROUP 4 A **** 0
122 HOH 364 GROUP 4 A **** 0
123 HOH 367 GROUP 4 A **** 0
124 HOH 370 GROUP 4 A **** 0
125 HOH 373 GROUP 4 A **** 0
126 HOH 376 GROUP 4 A **** 0
127 HOH 379 GROUP 4 A **** 0
128 HOH 382 GROUP 4 A **** 0
129 HOH 385 GROUP 4 A **** 0
130 HOH 388 GROUP 4 A **** 0
131 HOH 391 GROUP 4 A **** 0
132 HOH 394 GROUP 4 A **** 0
133 HOH 397 GROUP 4 A **** 0
134 HOH 400 GROUP 4 A **** 0
135 HOH 403 GROUP 4 A **** 0
136 HOH 406 GROUP 4 A **** 0
137 HOH 409 GROUP 4 A **** 0
138 HOH 412 GROUP 4 A **** 0
139 HOH 415 GROUP 4 A **** 0
140 HOH 418 GROUP 4 A **** 0
141 HOH 421 GROUP 4 A **** 0
142 HOH 424 GROUP 4 A **** 0
143 HOH 427 GROUP 4 A **** 0
144 HOH 430 GROUP 4 A **** 0
145 HOH 433 GROUP 4 A **** 0
146 HOH 436 GROUP 4 A **** 0
147 HOH 439 GROUP 4 A **** 0
148 HOH 442 GROUP 4 A **** 0
149 HOH 445 GROUP 4 A **** 0
150 HOH 448 GROUP 4 A **** 0
151 HOH 451 GROUP 4 A **** 0
152 HOH 454 GROUP 4 A **** 0
153 HOH 457 GROUP 4 A **** 0
154 HOH 460 GROUP 4 A **** 0
155 HOH 463 GROUP 4 A **** 0
156 HOH 466 GROUP 4 A **** 0
157 HOH 469 GROUP 4 A **** 0
158 HOH 472 GROUP 4 A **** 0
159 HOH 475 GROUP 4 A **** 0
160 HOH 478 GROUP 4 A **** 0
161 HOH 481 GROUP 4 A **** 0
162 HOH 484 GROUP 4 A **** 0
163 HOH 487 GROUP 4 A **** 0
164 HOH 490 GROUP 4 A **** 0
165 HOH 493 GROUP 4 A **** 0
166 HOH 496 GROUP 4 A **** 0
167 HOH 499 GROUP 4 A **** 0
168 HOH 502 GROUP 4 A **** 0
169 HOH 505 GROUP 4 A **** 0
170 HOH 508 GROUP 4 A **** 0
171 HOH 511 GROUP 4 A **** 0
172 HOH 514 GROUP 4 A **** 0
173 HOH 517 GROUP 4 A **** 0
174 HOH 520 GROUP 4 A **** 0

# MOE 2012.10 (io_trps.svl 2012.10)
