@<TRIPOS>MOLECULE
2hiw.A
52 55 1 0 0 
SMALL
USER_CHARGES


@<TRIPOS>ATOM
  1 OAK      3.9129    20.1010    38.4624 O.2   1 Q7MP  -0.5700 
  2 CAH      3.0534    20.4963    39.2773 C.2   1 Q7MP   0.6900 
  3 NAG      2.4370    19.6521    40.2632 N.am  1 Q7MP  -0.4771 
  4 CAT      2.8088    18.2410    40.3359 C.3   1 Q7MP   0.0601 
  5 HAT1     3.5498    18.0205    39.5674 H     1 Q7MP   0.0800 
  6 HAT2     1.9248    17.6236    40.1760 H     1 Q7MP   0.0800 
  7 HAT3     3.2292    18.0261    41.3183 H     1 Q7MP   0.0800 
  8 C4       1.4655    20.1713    41.1897 C.ar  1 Q7MP   0.4270 
  9 N3       0.8651    19.4374    42.1432 N.ar  1 Q7MP  -0.6200 
 10 C2      -0.0367    20.0189    42.9636 C.ar  1 Q7MP   0.7200 
 11 NAS     -0.6247    19.2449    43.8997 N.pl3 1 Q7MP  -0.9000 
 12 HAS1    -1.3060    19.6438    44.5295 H     1 Q7MP   0.4000 
 13 HAS2    -0.3834    18.2667    43.9704 H     1 Q7MP   0.4000 
 14 N1      -0.3636    21.3397    42.8694 N.ar  1 Q7MP  -0.6200 
 15 C6       0.2039    22.1180    41.9304 C.ar  1 Q7MP   0.1600 
 16 H6      -0.0487    23.1638    41.8355 H     1 Q7MP   0.1500 
 17 C5       1.1292    21.5155    41.0889 C.ar  1 Q7MP  -0.1435 
 18 CAJ      1.8190    21.9606    40.1372 C.3   1 Q7MP   0.2836 
 19 HAJ1     2.3099    22.7815    40.6599 H     1 Q7MP   0.0800 
 20 HAJ2     1.0120    22.3543    39.5193 H     1 Q7MP   0.0800 
 21 NAI      2.6823    21.7702    39.2262 N.am  1 Q7MP  -0.4771 
 22 CAL      3.2485    22.6568    38.2983 C.ar  1 Q7MP   0.1170 
 23 CAQ      4.4106    23.3541    38.6251 C.ar  1 Q7MP  -0.1435 
 24 CAR      5.0439    23.1929    39.9848 C.3   1 Q7MP  -0.0965 
 25 HAR1     4.4609    22.4865    40.5757 H     1 Q7MP   0.0800 
 26 HAR2     5.0674    24.1578    40.4913 H     1 Q7MP   0.0800 
 27 HAR3     6.0609    22.8181    39.8698 H     1 Q7MP   0.0800 
 28 CAP      4.9869    24.2152    37.6899 C.ar  1 Q7MP  -0.1500 
 29 HAP      5.8814    24.7671    37.9384 H     1 Q7MP   0.1500 
 30 CAO      4.4021    24.3583    36.4361 C.ar  1 Q7MP  -0.1500 
 31 HAO      4.8506    25.0182    35.7082 H     1 Q7MP   0.1500 
 32 CAM      2.6689    22.7935    37.0450 C.ar  1 Q7MP  -0.1500 
 33 HAM      1.7795    22.2343    36.7949 H     1 Q7MP   0.1500 
 34 CAN      3.2393    23.6553    36.1106 C.ar  1 Q7MP   0.1170 
 35 NAU      2.6908    23.8166    34.8783 N.am  1 Q7MP  -0.5470 
 36 HAU      3.1649    24.4491    34.2495 H     1 Q7MP   0.3700 
 37 CAV      1.5847    23.2216    34.4127 C.2   1 Q7MP   0.5438 
 38 OAW      0.9310    22.4328    35.0756 O.2   1 Q7MP  -0.5700 
 39 CAX      1.1622    23.5778    33.0031 C.ar  1 Q7MP   0.0862 
 40 CBC     -0.1895    23.6951    32.6536 C.ar  1 Q7MP  -0.1500 
 41 HBC     -0.9535    23.5258    33.3979 H     1 Q7MP   0.1500 
 42 CAY      2.1482    23.8124    32.0426 C.ar  1 Q7MP  -0.1500 
 43 HAY      3.1907    23.7307    32.3126 H     1 Q7MP   0.1500 
 44 CAZ      1.7964    24.1501    30.7418 C.ar  1 Q7MP  -0.1500 
 45 HAZ      2.5605    24.3272    29.9994 H     1 Q7MP   0.1500 
 46 CBA      0.4484    24.2585    30.4029 C.ar  1 Q7MP  -0.1500 
 47 HBA      0.1761    24.5240    29.3921 H     1 Q7MP   0.1500 
 48 CBB     -0.5551    24.0305    31.3444 C.ar  1 Q7MP  -0.1435 
 49 CBD     -2.0121    24.1567    30.9464 C.3   1 Q7MP   1.1635 
 50 FBE     -2.6194    23.0075    31.1724 F     1 Q7MP  -0.3400 
 51 FBF     -2.1201    24.4161    29.6477 F     1 Q7MP  -0.3400 
 52 FBG     -2.6075    25.1228    31.6491 F     1 Q7MP  -0.3400 
@<TRIPOS>BOND
  1   1   2  2   
  2   2   3  am  
  3   2  21  am  
  4   3   4  1   
  5   3   8  1   
  6   4   5  1   
  7   4   6  1   
  8   4   7  1   
  9   8   9  ar  
 10   8  17  ar  
 11   9  10  ar  
 12  10  11  1   
 13  10  14  ar  
 14  11  12  1   
 15  11  13  1   
 16  14  15  ar  
 17  15  16  1   
 18  15  17  ar  
 19  17  18  1   
 20  18  19  1   
 21  18  20  1   
 22  18  21  1   
 23  21  22  1   
 24  22  23  ar  
 25  22  32  ar  
 26  23  24  1   
 27  23  28  ar  
 28  24  25  1   
 29  24  26  1   
 30  24  27  1   
 31  28  29  1   
 32  28  30  ar  
 33  30  31  1   
 34  30  34  ar  
 35  32  33  1   
 36  32  34  ar  
 37  34  35  1   
 38  35  36  1   
 39  35  37  am  
 40  37  38  2   
 41  37  39  1   
 42  39  40  ar  
 43  39  42  ar  
 44  40  41  1   
 45  40  48  ar  
 46  42  43  1   
 47  42  44  ar  
 48  44  45  1   
 49  44  46  ar  
 50  46  47  1   
 51  46  48  ar  
 52  48  49  1   
 53  49  50  1   
 54  49  51  1   
 55  49  52  1   
@<TRIPOS>SUBSTRUCTURE
  1 Q7MP  32 GROUP 4 A **** 0

# MOE 2012.10 (io_trps.svl 2012.10)
