@<TRIPOS>MOLECULE
2hiw.A
354 236 118 0 0 
SMALL
USER_CHARGES


@<TRIPOS>ATOM
  1 O        8.7848    34.4319    51.8348 O.3     1 HOH   0.0000 
  2 H1       9.7448    34.4319    51.8348 H       1 HOH   0.0000 
  3 H2       8.4945    35.0790    52.4818 H       1 HOH   0.0000 
  4 O        2.8010    35.3189    42.8258 O.3     2 HOH   0.0000 
  5 H1       3.7610    35.3189    42.8258 H       2 HOH   0.0000 
  6 H2       2.5107    35.9660    43.4729 H       2 HOH   0.0000 
  7 O       -6.9799     6.6005    21.5753 O.3     3 HOH   0.0000 
  8 H1      -6.0199     6.6005    21.5753 H       3 HOH   0.0000 
  9 H2      -7.2702     7.2475    22.2223 H       3 HOH   0.0000 
 10 O        4.8696    20.3546    31.1673 O.3     4 HOH  -0.8340 
 11 H1       4.3380    19.9825    30.4637 H       4 HOH   0.4170 
 12 H2       4.2376    20.7827    31.7449 H       4 HOH   0.4170 
 13 O       -8.2898    23.2403    23.5279 O.3     5 HOH   0.0000 
 14 H1      -7.3298    23.2403    23.5279 H       5 HOH   0.0000 
 15 H2      -8.5801    23.8874    24.1750 H       5 HOH   0.0000 
 16 O       -1.3757    28.9114    21.0722 O.3     6 HOH   0.0000 
 17 H1      -0.4157    28.9114    21.0722 H       6 HOH   0.0000 
 18 H2      -1.6659    29.5584    21.7192 H       6 HOH   0.0000 
 19 O       -9.4224    20.8435    14.0412 O.3     7 HOH   0.0000 
 20 H1      -8.4624    20.8435    14.0412 H       7 HOH   0.0000 
 21 H2      -9.7127    21.4906    14.6882 H       7 HOH   0.0000 
 22 O       -5.9690    13.5856    21.0046 O.3     8 HOH   0.0000 
 23 H1      -5.0090    13.5856    21.0046 H       8 HOH   0.0000 
 24 H2      -6.2593    14.2326    21.6516 H       8 HOH   0.0000 
 25 O      -12.9523    -0.6365    25.6912 O.3     9 HOH   0.0000 
 26 H1     -11.9923    -0.6365    25.6912 H       9 HOH   0.0000 
 27 H2     -13.2425     0.0106    26.3383 H       9 HOH   0.0000 
 28 O       -5.4336    -6.1366    21.1086 O.3    10 HOH   0.0000 
 29 H1      -4.4736    -6.1366    21.1086 H      10 HOH   0.0000 
 30 H2      -5.7239    -5.4895    21.7557 H      10 HOH   0.0000 
 31 O      -18.2036     7.8433    19.2513 O.3    11 HOH   0.0000 
 32 H1     -17.2436     7.8433    19.2513 H      11 HOH   0.0000 
 33 H2     -18.4938     8.4903    19.8984 H      11 HOH   0.0000 
 34 O       10.6520    32.9321    32.9097 O.3    12 HOH   0.0000 
 35 H1      11.6120    32.9321    32.9097 H      12 HOH   0.0000 
 36 H2      10.3617    33.5792    33.5568 H      12 HOH   0.0000 
 37 O        8.7432    34.1648    29.9282 O.3    13 HOH   0.0000 
 38 H1       9.7032    34.1648    29.9282 H      13 HOH   0.0000 
 39 H2       8.4529    34.8119    30.5753 H      13 HOH   0.0000 
 40 O       -0.4647    38.1374    28.4422 O.3    14 HOH   0.0000 
 41 H1       0.4953    38.1374    28.4422 H      14 HOH   0.0000 
 42 H2      -0.7550    38.7845    29.0892 H      14 HOH   0.0000 
 43 O        1.0505    36.0626    41.5991 O.3    15 HOH   0.0000 
 44 H1       2.0105    36.0626    41.5991 H      15 HOH   0.0000 
 45 H2       0.7602    36.7097    42.2461 H      15 HOH   0.0000 
 46 O       -6.3334    17.0832    15.3703 O.3    16 HOH   0.0000 
 47 H1      -5.3734    17.0832    15.3703 H      16 HOH   0.0000 
 48 H2      -6.6236    17.7303    16.0173 H      16 HOH   0.0000 
 49 O        7.9630    14.9423    41.8763 O.3    17 HOH   0.0000 
 50 H1       8.9230    14.9423    41.8763 H      17 HOH   0.0000 
 51 H2       7.6727    15.5894    42.5233 H      17 HOH   0.0000 
 52 O       -3.9335    12.8418    44.1241 O.3    18 HOH   0.0000 
 53 H1      -2.9735    12.8418    44.1241 H      18 HOH   0.0000 
 54 H2      -4.2238    13.4888    44.7712 H      18 HOH   0.0000 
 55 O       -1.6499    30.8238    35.8195 O.3    19 HOH   0.0000 
 56 H1      -0.6899    30.8238    35.8195 H      19 HOH   0.0000 
 57 H2      -1.9402    31.4709    36.4666 H      19 HOH   0.0000 
 58 O        0.1230    34.4781    56.4227 O.3    20 HOH   0.0000 
 59 H1       1.0830    34.4781    56.4227 H      20 HOH   0.0000 
 60 H2      -0.1673    35.1252    57.0697 H      20 HOH   0.0000 
 61 O       -0.0429    22.1234    27.7781 O.3    21 HOH  -0.8340 
 62 H1      -0.1036    21.6539    26.9462 H      21 HOH   0.4170 
 63 H2       0.4741    21.5476    28.3415 H      21 HOH   0.4170 
 64 O      -12.6708    16.7391    49.4879 O.3    22 HOH   0.0000 
 65 H1     -11.7108    16.7391    49.4879 H      22 HOH   0.0000 
 66 H2     -12.9611    17.3861    50.1349 H      22 HOH   0.0000 
 67 O        7.3854     1.1057    38.1591 O.3    23 HOH   0.0000 
 68 H1       8.3454     1.1057    38.1591 H      23 HOH   0.0000 
 69 H2       7.0951     1.7527    38.8061 H      23 HOH   0.0000 
 70 O       -3.5521    14.9099    22.5171 O.3    24 HOH   0.0000 
 71 H1      -2.5921    14.9099    22.5171 H      24 HOH   0.0000 
 72 H2      -3.8424    15.5570    23.1642 H      24 HOH   0.0000 
 73 O       10.3089    37.0555    51.8907 O.3    25 HOH   0.0000 
 74 H1      11.2689    37.0555    51.8907 H      25 HOH   0.0000 
 75 H2      10.0186    37.7025    52.5378 H      25 HOH   0.0000 
 76 O      -12.5862    25.2369    46.7794 O.3    26 HOH   0.0000 
 77 H1     -11.6262    25.2369    46.7794 H      26 HOH   0.0000 
 78 H2     -12.8765    25.8840    47.4265 H      26 HOH   0.0000 
 79 O       15.2309    16.5846    34.9787 O.3    27 HOH   0.0000 
 80 H1      16.1909    16.5846    34.9787 H      27 HOH   0.0000 
 81 H2      14.9406    17.2316    35.6257 H      27 HOH   0.0000 
 82 O        0.6392    16.8930    45.3905 O.3    28 HOH  -0.8340 
 83 H1       0.4719    17.5436    46.0724 H      28 HOH   0.4170 
 84 H2       0.6617    16.0572    45.8566 H      28 HOH   0.4170 
 85 O      -23.4690     8.0273    42.8475 O.3    29 HOH   0.0000 
 86 H1     -22.5090     8.0273    42.8475 H      29 HOH   0.0000 
 87 H2     -23.7593     8.6744    43.4946 H      29 HOH   0.0000 
 88 O      -22.5449    11.4530    37.3456 O.3    30 HOH   0.0000 
 89 H1     -21.5849    11.4530    37.3456 H      30 HOH   0.0000 
 90 H2     -22.8352    12.1000    37.9926 H      30 HOH   0.0000 
 91 O        0.1056     7.5048     8.5857 O.3    31 HOH   0.0000 
 92 H1       1.0656     7.5048     8.5857 H      31 HOH   0.0000 
 93 H2      -0.1846     8.1519     9.2328 H      31 HOH   0.0000 
 94 O       -0.5587     8.8549    44.9528 O.3    32 HOH   0.0000 
 95 H1       0.4013     8.8549    44.9528 H      32 HOH   0.0000 
 96 H2      -0.8490     9.5020    45.5999 H      32 HOH   0.0000 
 97 O      -22.6999     8.6107    19.0760 O.3    33 HOH   0.0000 
 98 H1     -21.7399     8.6107    19.0760 H      33 HOH   0.0000 
 99 H2     -22.9902     9.2578    19.7230 H      33 HOH   0.0000 
100 O       15.4658    17.1524    54.5001 O.3    34 HOH   0.0000 
101 H1      16.4258    17.1524    54.5001 H      34 HOH   0.0000 
102 H2      15.1755    17.7994    55.1471 H      34 HOH   0.0000 
103 O       16.3936    35.1294    43.2749 O.3    35 HOH   0.0000 
104 H1      17.3536    35.1294    43.2749 H      35 HOH   0.0000 
105 H2      16.1033    35.7764    43.9220 H      35 HOH   0.0000 
106 O      -11.1015     2.5604    43.3175 O.3    36 HOH   0.0000 
107 H1     -10.1415     2.5604    43.3175 H      36 HOH   0.0000 
108 H2     -11.3918     3.2074    43.9645 H      36 HOH   0.0000 
109 O       -0.3069    11.5320    37.8962 O.3    37 HOH   0.0000 
110 H1       0.6531    11.5320    37.8962 H      37 HOH   0.0000 
111 H2      -0.5971    12.1790    38.5433 H      37 HOH   0.0000 
112 O       14.0019    39.8868    43.3808 O.3    38 HOH   0.0000 
113 H1      14.9619    39.8868    43.3808 H      38 HOH   0.0000 
114 H2      13.7116    40.5339    44.0278 H      38 HOH   0.0000 
115 O      -18.9106    20.2932    12.0940 O.3    39 HOH   0.0000 
116 H1     -17.9506    20.2932    12.0940 H      39 HOH   0.0000 
117 H2     -19.2009    20.9403    12.7411 H      39 HOH   0.0000 
118 O        1.0837     8.3773    40.5904 O.3    40 HOH   0.0000 
119 H1       2.0437     8.3773    40.5904 H      40 HOH   0.0000 
120 H2       0.7935     9.0243    41.2375 H      40 HOH   0.0000 
121 O      -28.7148    14.1265    40.9114 O.3    41 HOH   0.0000 
122 H1     -27.7548    14.1265    40.9114 H      41 HOH   0.0000 
123 H2     -29.0051    14.7736    41.5584 H      41 HOH   0.0000 
124 O      -23.3301     7.3492    46.6070 O.3    42 HOH   0.0000 
125 H1     -22.3701     7.3492    46.6070 H      42 HOH   0.0000 
126 H2     -23.6204     7.9962    47.2541 H      42 HOH   0.0000 
127 O       11.0484    21.6112    31.4537 O.3    43 HOH   0.0000 
128 H1      12.0084    21.6112    31.4537 H      43 HOH   0.0000 
129 H2      10.7581    22.2583    32.1008 H      43 HOH   0.0000 
130 O       14.1379    14.6148    39.7626 O.3    44 HOH   0.0000 
131 H1      15.0979    14.6148    39.7626 H      44 HOH   0.0000 
132 H2      13.8476    15.2619    40.4097 H      44 HOH   0.0000 
133 O       -6.9067    23.9940    16.8229 O.3    45 HOH   0.0000 
134 H1      -5.9467    23.9940    16.8229 H      45 HOH   0.0000 
135 H2      -7.1970    24.6410    17.4699 H      45 HOH   0.0000 
136 O      -10.8538    14.4463    50.3946 O.3    46 HOH   0.0000 
137 H1      -9.8938    14.4463    50.3946 H      46 HOH   0.0000 
138 H2     -11.1441    15.0934    51.0417 H      46 HOH   0.0000 
139 O       19.7583    36.5094    34.3381 O.3    47 HOH   0.0000 
140 H1      20.7183    36.5094    34.3381 H      47 HOH   0.0000 
141 H2      19.4680    37.1565    34.9851 H      47 HOH   0.0000 
142 O       -5.2691    16.5981    24.7282 O.3    48 HOH   0.0000 
143 H1      -4.3091    16.5981    24.7282 H      48 HOH   0.0000 
144 H2      -5.5594    17.2452    25.3752 H      48 HOH   0.0000 
145 O      -23.9958    10.4141    48.9088 O.3    49 HOH   0.0000 
146 H1     -23.0358    10.4141    48.9088 H      49 HOH   0.0000 
147 H2     -24.2860    11.0612    49.5558 H      49 HOH   0.0000 
148 O      -11.8702    33.2931    20.2745 O.3    50 HOH   0.0000 
149 H1     -10.9102    33.2931    20.2745 H      50 HOH   0.0000 
150 H2     -12.1604    33.9401    20.9215 H      50 HOH   0.0000 
151 O       -2.9655     1.6681    17.3175 O.3    51 HOH   0.0000 
152 H1      -2.0055     1.6681    17.3175 H      51 HOH   0.0000 
153 H2      -3.2558     2.3151    17.9645 H      51 HOH   0.0000 
154 O       10.4901     8.4954    36.1443 O.3    52 HOH   0.0000 
155 H1      11.4501     8.4954    36.1443 H      52 HOH   0.0000 
156 H2      10.1998     9.1425    36.7913 H      52 HOH   0.0000 
157 O      -19.2664    19.0712    45.2489 O.3    53 HOH   0.0000 
158 H1     -18.3064    19.0712    45.2489 H      53 HOH   0.0000 
159 H2     -19.5567    19.7183    45.8959 H      53 HOH   0.0000 
160 O      -19.6457    30.6194    24.6165 O.3    54 HOH   0.0000 
161 H1     -18.6857    30.6194    24.6165 H      54 HOH   0.0000 
162 H2     -19.9359    31.2665    25.2636 H      54 HOH   0.0000 
163 O      -26.2754    21.3218    41.4561 O.3    55 HOH   0.0000 
164 H1     -25.3154    21.3218    41.4561 H      55 HOH   0.0000 
165 H2     -26.5656    21.9688    42.1032 H      55 HOH   0.0000 
166 O        2.3878    14.5068    26.2273 O.3    56 HOH   0.0000 
167 H1       3.3478    14.5068    26.2273 H      56 HOH   0.0000 
168 H2       2.0975    15.1538    26.8743 H      56 HOH   0.0000 
169 O       -1.8211     4.5631    40.5259 O.3    57 HOH   0.0000 
170 H1      -0.8611     4.5631    40.5259 H      57 HOH   0.0000 
171 H2      -2.1113     5.2102    41.1730 H      57 HOH   0.0000 
172 O      -24.1114    13.5960    21.0144 O.3    58 HOH   0.0000 
173 H1     -23.1514    13.5960    21.0144 H      58 HOH   0.0000 
174 H2     -24.4017    14.2431    21.6614 H      58 HOH   0.0000 
175 O        4.8073    15.0750    28.2908 O.3    59 HOH   0.0000 
176 H1       5.7673    15.0750    28.2908 H      59 HOH   0.0000 
177 H2       4.5170    15.7220    28.9378 H      59 HOH   0.0000 
178 O      -27.3591    12.9534    21.1382 O.3    60 HOH   0.0000 
179 H1     -26.3991    12.9534    21.1382 H      60 HOH   0.0000 
180 H2     -27.6494    13.6005    21.7853 H      60 HOH   0.0000 
181 O       18.8978    13.3378    41.3841 O.3    61 HOH   0.0000 
182 H1      19.8578    13.3378    41.3841 H      61 HOH   0.0000 
183 H2      18.6076    13.9849    42.0311 H      61 HOH   0.0000 
184 O       -1.8616    33.4166    52.6290 O.3    62 HOH   0.0000 
185 H1      -0.9016    33.4166    52.6290 H      62 HOH   0.0000 
186 H2      -2.1518    34.0636    53.2761 H      62 HOH   0.0000 
187 O      -18.7152     2.9753    42.0225 O.3    63 HOH   0.0000 
188 H1     -17.7552     2.9753    42.0225 H      63 HOH   0.0000 
189 H2     -19.0055     3.6224    42.6696 H      63 HOH   0.0000 
190 O       -1.6037    36.2636    24.0529 O.3    64 HOH   0.0000 
191 H1      -0.6437    36.2636    24.0529 H      64 HOH   0.0000 
192 H2      -1.8940    36.9106    24.6999 H      64 HOH   0.0000 
193 O      -23.1962     2.3449    22.0299 O.3    65 HOH   0.0000 
194 H1     -22.2362     2.3449    22.0299 H      65 HOH   0.0000 
195 H2     -23.4864     2.9919    22.6769 H      65 HOH   0.0000 
196 O       11.6388    13.4045    22.5457 O.3    66 HOH   0.0000 
197 H1      12.5988    13.4045    22.5457 H      66 HOH   0.0000 
198 H2      11.3486    14.0516    23.1927 H      66 HOH   0.0000 
199 O       17.8261    43.7361    29.8874 O.3    67 HOH   0.0000 
200 H1      18.7861    43.7361    29.8874 H      67 HOH   0.0000 
201 H2      17.5358    44.3832    30.5344 H      67 HOH   0.0000 
202 O       20.0520    15.2081    30.6451 O.3    68 HOH   0.0000 
203 H1      21.0120    15.2081    30.6451 H      68 HOH   0.0000 
204 H2      19.7617    15.8552    31.2921 H      68 HOH   0.0000 
205 O       17.6045    42.1023    38.1045 O.3    69 HOH   0.0000 
206 H1      18.5645    42.1023    38.1045 H      69 HOH   0.0000 
207 H2      17.3143    42.7494    38.7515 H      69 HOH   0.0000 
208 O       -7.5855     9.7995    11.1240 O.3    70 HOH   0.0000 
209 H1      -6.6255     9.7995    11.1240 H      70 HOH   0.0000 
210 H2      -7.8757    10.4466    11.7710 H      70 HOH   0.0000 
211 O      -12.8214     5.4234    44.5041 O.3    71 HOH   0.0000 
212 H1     -11.8614     5.4234    44.5041 H      71 HOH   0.0000 
213 H2     -13.1116     6.0705    45.1511 H      71 HOH   0.0000 
214 O       -6.9019    29.9214    39.0174 O.3    72 HOH   0.0000 
215 H1      -5.9419    29.9214    39.0174 H      72 HOH   0.0000 
216 H2      -7.1921    30.5684    39.6645 H      72 HOH   0.0000 
217 O      -27.0441    24.2233    38.2161 O.3    73 HOH   0.0000 
218 H1     -26.0841    24.2233    38.2161 H      73 HOH   0.0000 
219 H2     -27.3344    24.8703    38.8631 H      73 HOH   0.0000 
220 O      -17.7238    -1.2434    23.6868 O.3    74 HOH   0.0000 
221 H1     -16.7638    -1.2434    23.6868 H      74 HOH   0.0000 
222 H2     -18.0141    -0.5963    24.3338 H      74 HOH   0.0000 
223 O       -0.6930    27.4224    52.7593 O.3    75 HOH   0.0000 
224 H1       0.2670    27.4224    52.7593 H      75 HOH   0.0000 
225 H2      -0.9833    28.0694    53.4064 H      75 HOH   0.0000 
226 O      -19.4142    13.5751    34.1254 O.3    76 HOH   0.0000 
227 H1     -18.4542    13.5751    34.1254 H      76 HOH   0.0000 
228 H2     -19.7045    14.2222    34.7724 H      76 HOH   0.0000 
229 O      -26.0583    14.3555    25.0237 O.3    77 HOH   0.0000 
230 H1     -25.0983    14.3555    25.0237 H      77 HOH   0.0000 
231 H2     -26.3486    15.0025    25.6708 H      77 HOH   0.0000 
232 O        1.6626    10.5098    39.2151 O.3    78 HOH   0.0000 
233 H1       2.6226    10.5098    39.2151 H      78 HOH   0.0000 
234 H2       1.3723    11.1568    39.8621 H      78 HOH   0.0000 
235 O      -18.9896     7.7551    16.1457 O.3    79 HOH   0.0000 
236 H1     -18.0296     7.7551    16.1457 H      79 HOH   0.0000 
237 H2     -19.2798     8.4022    16.7928 H      79 HOH   0.0000 
238 O       12.9098    20.8751    53.9041 O.3    80 HOH   0.0000 
239 H1      13.8698    20.8751    53.9041 H      80 HOH   0.0000 
240 H2      12.6196    21.5221    54.5511 H      80 HOH   0.0000 
241 O       -6.6977    29.1980    41.9811 O.3    81 HOH   0.0000 
242 H1      -5.7377    29.1980    41.9811 H      81 HOH   0.0000 
243 H2      -6.9880    29.8450    42.6281 H      81 HOH   0.0000 
244 O      -24.7020     6.8927    23.7900 O.3    82 HOH   0.0000 
245 H1     -23.7420     6.8927    23.7900 H      82 HOH   0.0000 
246 H2     -24.9923     7.5398    24.4370 H      82 HOH   0.0000 
247 O      -21.4381    16.9299    12.3798 O.3    83 HOH   0.0000 
248 H1     -20.4781    16.9299    12.3798 H      83 HOH   0.0000 
249 H2     -21.7284    17.5769    13.0269 H      83 HOH   0.0000 
250 O       22.1062    37.3787    35.5449 O.3    84 HOH   0.0000 
251 H1      23.0662    37.3787    35.5449 H      84 HOH   0.0000 
252 H2      21.8159    38.0257    36.1920 H      84 HOH   0.0000 
253 O      -29.7187    24.1903    35.1724 O.3    85 HOH   0.0000 
254 H1     -28.7587    24.1903    35.1724 H      85 HOH   0.0000 
255 H2     -30.0090    24.8373    35.8195 H      85 HOH   0.0000 
256 O      -19.4110     8.5434    54.0031 O.3    86 HOH   0.0000 
257 H1     -18.4510     8.5434    54.0031 H      86 HOH   0.0000 
258 H2     -19.7013     9.1904    54.6501 H      86 HOH   0.0000 
259 O       -6.4669    -0.9885    30.0840 O.3    87 HOH   0.0000 
260 H1      -5.5069    -0.9885    30.0840 H      87 HOH   0.0000 
261 H2      -6.7572    -0.3415    30.7311 H      87 HOH   0.0000 
262 O      -15.8214    34.5481    28.1279 O.3    88 HOH   0.0000 
263 H1     -14.8614    34.5481    28.1279 H      88 HOH   0.0000 
264 H2     -16.1117    35.1951    28.7749 H      88 HOH   0.0000 
265 O      -17.3946    -0.7430    40.0245 O.3    89 HOH   0.0000 
266 H1     -16.4346    -0.7430    40.0245 H      89 HOH   0.0000 
267 H2     -17.6849    -0.0959    40.6716 H      89 HOH   0.0000 
268 O       18.9622    16.4070    28.5332 O.3    90 HOH   0.0000 
269 H1      19.9222    16.4070    28.5332 H      90 HOH   0.0000 
270 H2      18.6719    17.0540    29.1803 H      90 HOH   0.0000 
271 O       -1.6027    33.2074    36.8062 O.3    91 HOH   0.0000 
272 H1      -0.6427    33.2074    36.8062 H      91 HOH   0.0000 
273 H2      -1.8930    33.8544    37.4533 H      91 HOH   0.0000 
274 O       -1.8194    33.5713    55.1436 O.3    92 HOH   0.0000 
275 H1      -0.8594    33.5713    55.1436 H      92 HOH   0.0000 
276 H2      -2.1097    34.2184    55.7906 H      92 HOH   0.0000 
277 O        0.0034    34.3644    58.6251 O.3    93 HOH   0.0000 
278 H1       0.9634    34.3644    58.6251 H      93 HOH   0.0000 
279 H2      -0.2868    35.0115    59.2721 H      93 HOH   0.0000 
280 O       -5.3343    30.2213    36.8461 O.3    94 HOH   0.0000 
281 H1      -4.3743    30.2213    36.8461 H      94 HOH   0.0000 
282 H2      -5.6246    30.8684    37.4932 H      94 HOH   0.0000 
283 O       13.6063    16.0022    37.0558 O.3    95 HOH   0.0000 
284 H1      14.5663    16.0022    37.0558 H      95 HOH   0.0000 
285 H2      13.3161    16.6492    37.7029 H      95 HOH   0.0000 
286 O      -11.8702    18.5979    47.7456 O.3    96 HOH   0.0000 
287 H1     -10.9102    18.5979    47.7456 H      96 HOH   0.0000 
288 H2     -12.1604    19.2450    48.3926 H      96 HOH   0.0000 
289 O       -4.6445    17.0045    22.0976 O.3    97 HOH   0.0000 
290 H1      -3.6845    17.0045    22.0976 H      97 HOH   0.0000 
291 H2      -4.9348    17.6516    22.7447 H      97 HOH   0.0000 
292 O       17.8104    27.8399    44.8901 O.3    98 HOH   0.0000 
293 H1      18.7704    27.8399    44.8901 H      98 HOH   0.0000 
294 H2      17.5201    28.4869    45.5372 H      98 HOH   0.0000 
295 O      -23.8890    13.0667    36.4477 O.3    99 HOH   0.0000 
296 H1     -22.9290    13.0667    36.4477 H      99 HOH   0.0000 
297 H2     -24.1792    13.7137    37.0947 H      99 HOH   0.0000 
298 O       -1.6027    33.2074    36.8062 O.3   100 HOH   0.0000 
299 H1      -0.6427    33.2074    36.8062 H     100 HOH   0.0000 
300 H2      -1.8930    33.8544    37.4533 H     100 HOH   0.0000 
301 O       11.0900    43.4574    40.9260 O.3   101 HOH   0.0000 
302 H1      12.0500    43.4574    40.9260 H     101 HOH   0.0000 
303 H2      10.7997    44.1044    41.5730 H     101 HOH   0.0000 
304 O       -6.7022    22.1431    53.5998 O.3   102 HOH   0.0000 
305 H1      -5.7422    22.1431    53.5998 H     102 HOH   0.0000 
306 H2      -6.9925    22.7901    54.2468 H     102 HOH   0.0000 
307 O       -2.0743     1.9804    33.1238 O.3   103 HOH   0.0000 
308 H1      -1.1143     1.9804    33.1238 H     103 HOH   0.0000 
309 H2      -2.3645     2.6275    33.7708 H     103 HOH   0.0000 
310 O      -23.3111    14.3462    48.2260 O.3   104 HOH   0.0000 
311 H1     -22.3511    14.3462    48.2260 H     104 HOH   0.0000 
312 H2     -23.6013    14.9933    48.8731 H     104 HOH   0.0000 
313 O       10.0212    25.8394    18.7469 O.3   105 HOH   0.0000 
314 H1      10.9812    25.8394    18.7469 H     105 HOH   0.0000 
315 H2       9.7309    26.4864    19.3940 H     105 HOH   0.0000 
316 O       -1.0791    34.9292    40.6801 O.3   106 HOH   0.0000 
317 H1      -0.1191    34.9292    40.6801 H     106 HOH   0.0000 
318 H2      -1.3693    35.5763    41.3271 H     106 HOH   0.0000 
319 O       -0.3387    38.6619    32.9862 O.3   107 HOH   0.0000 
320 H1       0.6213    38.6619    32.9862 H     107 HOH   0.0000 
321 H2      -0.6290    39.3089    33.6333 H     107 HOH   0.0000 
322 O        6.9999     2.3225    18.2674 O.3   108 HOH   0.0000 
323 H1       7.9599     2.3225    18.2674 H     108 HOH   0.0000 
324 H2       6.7096     2.9695    18.9144 H     108 HOH   0.0000 
325 O        3.8303    18.1793    15.0110 O.3   109 HOH   0.0000 
326 H1       4.7903    18.1793    15.0110 H     109 HOH   0.0000 
327 H2       3.5400    18.8264    15.6580 H     109 HOH   0.0000 
328 O       -1.1342    -3.6320    28.9220 O.3   110 HOH   0.0000 
329 H1      -0.1742    -3.6320    28.9220 H     110 HOH   0.0000 
330 H2      -1.4245    -2.9849    29.5691 H     110 HOH   0.0000 
331 O       -4.9691     5.2843    33.9248 O.3   111 HOH   0.0000 
332 H1      -4.0091     5.2843    33.9248 H     111 HOH   0.0000 
333 H2      -5.2594     5.9314    34.5719 H     111 HOH   0.0000 
334 O       -7.4552     2.5260    45.5717 O.3   112 HOH   0.0000 
335 H1      -6.4952     2.5260    45.5717 H     112 HOH   0.0000 
336 H2      -7.7455     3.1730    46.2188 H     112 HOH   0.0000 
337 O       -4.8108     9.6179    32.9957 O.3   113 HOH   0.0000 
338 H1      -3.8508     9.6179    32.9957 H     113 HOH   0.0000 
339 H2      -5.1011    10.2649    33.6428 H     113 HOH   0.0000 
340 O        1.8847    17.1776    50.9477 O.3   114 HOH   0.0000 
341 H1       2.8447    17.1776    50.9477 H     114 HOH   0.0000 
342 H2       1.5944    17.8246    51.5947 H     114 HOH   0.0000 
343 O      -28.3977    18.8976    29.2278 O.3   115 HOH   0.0000 
344 H1     -27.4377    18.8976    29.2278 H     115 HOH   0.0000 
345 H2     -28.6880    19.5447    29.8748 H     115 HOH   0.0000 
346 O      -21.7506    16.1390    47.4251 O.3   116 HOH   0.0000 
347 H1     -20.7906    16.1390    47.4251 H     116 HOH   0.0000 
348 H2     -22.0409    16.7861    48.0722 H     116 HOH   0.0000 
349 O        8.1521     8.2551    46.3862 O.3   117 HOH   0.0000 
350 H1       9.1121     8.2551    46.3862 H     117 HOH   0.0000 
351 H2       7.8618     8.9021    47.0333 H     117 HOH   0.0000 
352 O        3.5881    22.0285    54.5429 O.3   118 HOH   0.0000 
353 H1       4.5481    22.0285    54.5429 H     118 HOH   0.0000 
354 H2       3.2978    22.6756    55.1900 H     118 HOH   0.0000 
@<TRIPOS>BOND
  1   1   2  1   
  2   1   3  1   
  3   4   5  1   
  4   4   6  1   
  5   7   8  1   
  6   7   9  1   
  7  10  11  1   
  8  10  12  1   
  9  13  14  1   
 10  13  15  1   
 11  16  17  1   
 12  16  18  1   
 13  19  20  1   
 14  19  21  1   
 15  22  23  1   
 16  22  24  1   
 17  25  26  1   
 18  25  27  1   
 19  28  29  1   
 20  28  30  1   
 21  31  32  1   
 22  31  33  1   
 23  34  35  1   
 24  34  36  1   
 25  37  38  1   
 26  37  39  1   
 27  40  41  1   
 28  40  42  1   
 29  43  44  1   
 30  43  45  1   
 31  46  47  1   
 32  46  48  1   
 33  49  50  1   
 34  49  51  1   
 35  52  53  1   
 36  52  54  1   
 37  55  56  1   
 38  55  57  1   
 39  58  59  1   
 40  58  60  1   
 41  61  62  1   
 42  61  63  1   
 43  64  65  1   
 44  64  66  1   
 45  67  68  1   
 46  67  69  1   
 47  70  71  1   
 48  70  72  1   
 49  73  74  1   
 50  73  75  1   
 51  76  77  1   
 52  76  78  1   
 53  79  80  1   
 54  79  81  1   
 55  82  83  1   
 56  82  84  1   
 57  85  86  1   
 58  85  87  1   
 59  88  89  1   
 60  88  90  1   
 61  91  92  1   
 62  91  93  1   
 63  94  95  1   
 64  94  96  1   
 65  97  98  1   
 66  97  99  1   
 67 100 101  1   
 68 100 102  1   
 69 103 104  1   
 70 103 105  1   
 71 106 107  1   
 72 106 108  1   
 73 109 110  1   
 74 109 111  1   
 75 112 113  1   
 76 112 114  1   
 77 115 116  1   
 78 115 117  1   
 79 118 119  1   
 80 118 120  1   
 81 121 122  1   
 82 121 123  1   
 83 124 125  1   
 84 124 126  1   
 85 127 128  1   
 86 127 129  1   
 87 130 131  1   
 88 130 132  1   
 89 133 134  1   
 90 133 135  1   
 91 136 137  1   
 92 136 138  1   
 93 139 140  1   
 94 139 141  1   
 95 142 143  1   
 96 142 144  1   
 97 145 146  1   
 98 145 147  1   
 99 148 149  1   
100 148 150  1   
101 151 152  1   
102 151 153  1   
103 154 155  1   
104 154 156  1   
105 157 158  1   
106 157 159  1   
107 160 161  1   
108 160 162  1   
109 163 164  1   
110 163 165  1   
111 166 167  1   
112 166 168  1   
113 169 170  1   
114 169 171  1   
115 172 173  1   
116 172 174  1   
117 175 176  1   
118 175 177  1   
119 178 179  1   
120 178 180  1   
121 181 182  1   
122 181 183  1   
123 184 185  1   
124 184 186  1   
125 187 188  1   
126 187 189  1   
127 190 191  1   
128 190 192  1   
129 193 194  1   
130 193 195  1   
131 196 197  1   
132 196 198  1   
133 199 200  1   
134 199 201  1   
135 202 203  1   
136 202 204  1   
137 205 206  1   
138 205 207  1   
139 208 209  1   
140 208 210  1   
141 211 212  1   
142 211 213  1   
143 214 215  1   
144 214 216  1   
145 217 218  1   
146 217 219  1   
147 220 221  1   
148 220 222  1   
149 223 224  1   
150 223 225  1   
151 226 227  1   
152 226 228  1   
153 229 230  1   
154 229 231  1   
155 232 233  1   
156 232 234  1   
157 235 236  1   
158 235 237  1   
159 238 239  1   
160 238 240  1   
161 241 242  1   
162 241 243  1   
163 244 245  1   
164 244 246  1   
165 247 248  1   
166 247 249  1   
167 250 251  1   
168 250 252  1   
169 253 254  1   
170 253 255  1   
171 256 257  1   
172 256 258  1   
173 259 260  1   
174 259 261  1   
175 262 263  1   
176 262 264  1   
177 265 266  1   
178 265 267  1   
179 268 269  1   
180 268 270  1   
181 271 272  1   
182 271 273  1   
183 274 275  1   
184 274 276  1   
185 277 278  1   
186 277 279  1   
187 280 281  1   
188 280 282  1   
189 283 284  1   
190 283 285  1   
191 286 287  1   
192 286 288  1   
193 289 290  1   
194 289 291  1   
195 292 293  1   
196 292 294  1   
197 295 296  1   
198 295 297  1   
199 298 299  1   
200 298 300  1   
201 301 302  1   
202 301 303  1   
203 304 305  1   
204 304 306  1   
205 307 308  1   
206 307 309  1   
207 310 311  1   
208 310 312  1   
209 313 314  1   
210 313 315  1   
211 316 317  1   
212 316 318  1   
213 319 320  1   
214 319 321  1   
215 322 323  1   
216 322 324  1   
217 325 326  1   
218 325 327  1   
219 328 329  1   
220 328 330  1   
221 331 332  1   
222 331 333  1   
223 334 335  1   
224 334 336  1   
225 337 338  1   
226 337 339  1   
227 340 341  1   
228 340 342  1   
229 343 344  1   
230 343 345  1   
231 346 347  1   
232 346 348  1   
233 349 350  1   
234 349 351  1   
235 352 353  1   
236 352 354  1   
@<TRIPOS>SUBSTRUCTURE
  1 HOH   1 GROUP 4 A **** 0
  2 HOH   4 GROUP 4 A **** 0
  3 HOH   7 GROUP 4 A **** 0
  4 HOH  10 GROUP 4 A **** 0
  5 HOH  13 GROUP 4 A **** 0
  6 HOH  16 GROUP 4 A **** 0
  7 HOH  19 GROUP 4 A **** 0
  8 HOH  22 GROUP 4 A **** 0
  9 HOH  25 GROUP 4 A **** 0
 10 HOH  28 GROUP 4 A **** 0
 11 HOH  31 GROUP 4 A **** 0
 12 HOH  34 GROUP 4 A **** 0
 13 HOH  37 GROUP 4 A **** 0
 14 HOH  40 GROUP 4 A **** 0
 15 HOH  43 GROUP 4 A **** 0
 16 HOH  46 GROUP 4 A **** 0
 17 HOH  49 GROUP 4 A **** 0
 18 HOH  52 GROUP 4 A **** 0
 19 HOH  55 GROUP 4 A **** 0
 20 HOH  58 GROUP 4 A **** 0
 21 HOH  61 GROUP 4 A **** 0
 22 HOH  64 GROUP 4 A **** 0
 23 HOH  67 GROUP 4 A **** 0
 24 HOH  70 GROUP 4 A **** 0
 25 HOH  73 GROUP 4 A **** 0
 26 HOH  76 GROUP 4 A **** 0
 27 HOH  79 GROUP 4 A **** 0
 28 HOH  82 GROUP 4 A **** 0
 29 HOH  85 GROUP 4 A **** 0
 30 HOH  88 GROUP 4 A **** 0
 31 HOH  91 GROUP 4 A **** 0
 32 HOH  94 GROUP 4 A **** 0
 33 HOH  97 GROUP 4 A **** 0
 34 HOH 100 GROUP 4 A **** 0
 35 HOH 103 GROUP 4 A **** 0
 36 HOH 106 GROUP 4 A **** 0
 37 HOH 109 GROUP 4 A **** 0
 38 HOH 112 GROUP 4 A **** 0
 39 HOH 115 GROUP 4 A **** 0
 40 HOH 118 GROUP 4 A **** 0
 41 HOH 121 GROUP 4 A **** 0
 42 HOH 124 GROUP 4 A **** 0
 43 HOH 127 GROUP 4 A **** 0
 44 HOH 130 GROUP 4 A **** 0
 45 HOH 133 GROUP 4 A **** 0
 46 HOH 136 GROUP 4 A **** 0
 47 HOH 139 GROUP 4 A **** 0
 48 HOH 142 GROUP 4 A **** 0
 49 HOH 145 GROUP 4 A **** 0
 50 HOH 148 GROUP 4 A **** 0
 51 HOH 151 GROUP 4 A **** 0
 52 HOH 154 GROUP 4 A **** 0
 53 HOH 157 GROUP 4 A **** 0
 54 HOH 160 GROUP 4 A **** 0
 55 HOH 163 GROUP 4 A **** 0
 56 HOH 166 GROUP 4 A **** 0
 57 HOH 169 GROUP 4 A **** 0
 58 HOH 172 GROUP 4 A **** 0
 59 HOH 175 GROUP 4 A **** 0
 60 HOH 178 GROUP 4 A **** 0
 61 HOH 181 GROUP 4 A **** 0
 62 HOH 184 GROUP 4 A **** 0
 63 HOH 187 GROUP 4 A **** 0
 64 HOH 190 GROUP 4 A **** 0
 65 HOH 193 GROUP 4 A **** 0
 66 HOH 196 GROUP 4 A **** 0
 67 HOH 199 GROUP 4 A **** 0
 68 HOH 202 GROUP 4 A **** 0
 69 HOH 205 GROUP 4 A **** 0
 70 HOH 208 GROUP 4 A **** 0
 71 HOH 211 GROUP 4 A **** 0
 72 HOH 214 GROUP 4 A **** 0
 73 HOH 217 GROUP 4 A **** 0
 74 HOH 220 GROUP 4 A **** 0
 75 HOH 223 GROUP 4 A **** 0
 76 HOH 226 GROUP 4 A **** 0
 77 HOH 229 GROUP 4 A **** 0
 78 HOH 232 GROUP 4 A **** 0
 79 HOH 235 GROUP 4 A **** 0
 80 HOH 238 GROUP 4 A **** 0
 81 HOH 241 GROUP 4 A **** 0
 82 HOH 244 GROUP 4 A **** 0
 83 HOH 247 GROUP 4 A **** 0
 84 HOH 250 GROUP 4 A **** 0
 85 HOH 253 GROUP 4 A **** 0
 86 HOH 256 GROUP 4 A **** 0
 87 HOH 259 GROUP 4 A **** 0
 88 HOH 262 GROUP 4 A **** 0
 89 HOH 265 GROUP 4 A **** 0
 90 HOH 268 GROUP 4 A **** 0
 91 HOH 271 GROUP 4 A **** 0
 92 HOH 274 GROUP 4 A **** 0
 93 HOH 277 GROUP 4 A **** 0
 94 HOH 280 GROUP 4 A **** 0
 95 HOH 283 GROUP 4 A **** 0
 96 HOH 286 GROUP 4 A **** 0
 97 HOH 289 GROUP 4 A **** 0
 98 HOH 292 GROUP 4 A **** 0
 99 HOH 295 GROUP 4 A **** 0
100 HOH 298 GROUP 4 A **** 0
101 HOH 301 GROUP 4 A **** 0
102 HOH 304 GROUP 4 A **** 0
103 HOH 307 GROUP 4 A **** 0
104 HOH 310 GROUP 4 A **** 0
105 HOH 313 GROUP 4 A **** 0
106 HOH 316 GROUP 4 A **** 0
107 HOH 319 GROUP 4 A **** 0
108 HOH 322 GROUP 4 A **** 0
109 HOH 325 GROUP 4 A **** 0
110 HOH 328 GROUP 4 A **** 0
111 HOH 331 GROUP 4 A **** 0
112 HOH 334 GROUP 4 A **** 0
113 HOH 337 GROUP 4 A **** 0
114 HOH 340 GROUP 4 A **** 0
115 HOH 343 GROUP 4 A **** 0
116 HOH 346 GROUP 4 A **** 0
117 HOH 349 GROUP 4 A **** 0
118 HOH 352 GROUP 4 A **** 0

# MOE 2012.10 (io_trps.svl 2012.10)
