@<TRIPOS>MOLECULE
2hyy.A
69 73 1 0 0 
SMALL
USER_CHARGES


@<TRIPOS>ATOM
  1 C1       0.3498    17.8773    44.1653 C.ar  1 STI  -0.1500 
  2 H1       0.2596    16.8904    44.5946 H     1 STI   0.1500 
  3 C6       1.0598    18.1149    42.9860 C.ar  1 STI  -0.1500 
  4 H6       1.5116    17.2825    42.4669 H     1 STI   0.1500 
  5 C5       1.2029    19.4246    42.4517 C.ar  1 STI   0.0000 
  6 C4       0.5688    20.4617    43.1432 C.ar  1 STI   0.1600 
  7 H4       0.6450    21.4688    42.7604 H     1 STI   0.1500 
  8 N3      -0.1386    20.2425    44.2792 N.ar  1 STI  -0.6200 
  9 C2      -0.2332    18.9965    44.7497 C.ar  1 STI   0.1600 
 10 H2      -0.8061    18.8465    45.6529 H     1 STI   0.1500 
 11 C7       1.9963    19.7275    41.1786 C.ar  1 STI   0.3100 
 12 C12      2.8136    18.8369    40.6054 C.ar  1 STI  -0.1500 
 13 H12      2.9360    17.8442    41.0128 H     1 STI   0.1500 
 14 C11      3.5076    19.2443    39.4510 C.ar  1 STI   0.1600 
 15 H11      4.1782    18.5567    38.9570 H     1 STI   0.1500 
 16 N10      3.3423    20.4720    38.9643 N.ar  1 STI  -0.6200 
 17 C9       2.5263    21.3310    39.5515 C.ar  1 STI   0.7200 
 18 N8       1.8509    20.9924    40.6633 N.ar  1 STI  -0.6200 
 19 N13      2.2753    22.6212    39.1008 N.pl3 1 STI  -0.6000 
 20 H13      1.5309    23.1732    39.5026 H     1 STI   0.4000 
 21 C14      3.0605    23.1272    38.0991 C.ar  1 STI   0.1000 
 22 C19      4.3746    23.5709    38.3570 C.ar  1 STI  -0.1435 
 23 C18      5.0903    24.0690    37.2803 C.ar  1 STI  -0.1500 
 24 H18      6.1010    24.4152    37.4383 H     1 STI   0.1500 
 25 C17      4.5314    24.1382    35.9673 C.ar  1 STI  -0.1500 
 26 H17      5.1252    24.5320    35.1556 H     1 STI   0.1500 
 27 C16      3.2492    23.7107    35.7232 C.ar  1 STI   0.1170 
 28 C15      2.5069    23.2186    36.8075 C.ar  1 STI  -0.1500 
 29 H15      1.4867    22.9025    36.6477 H     1 STI   0.1500 
 30 N21      2.8273    23.8450    34.3654 N.am  1 STI  -0.5470 
 31 H21      3.4860    24.1633    33.6691 H     1 STI   0.3700 
 32 C22      1.5591    23.5523    33.9978 C.2   1 STI   0.5438 
 33 C23      1.1146    23.9666    32.6411 C.ar  1 STI   0.0862 
 34 C25     -0.2773    24.1031    32.3806 C.ar  1 STI  -0.1500 
 35 H25     -0.9758    23.9132    33.1821 H     1 STI   0.1500 
 36 C26     -0.7909    24.4834    31.0937 C.ar  1 STI  -0.1500 
 37 H26     -1.8541    24.5713    30.9252 H     1 STI   0.1500 
 38 C27      0.1283    24.7386    30.0580 C.ar  1 STI  -0.1435 
 39 C28      1.5249    24.6074    30.3039 C.ar  1 STI  -0.1500 
 40 H28      2.2162    24.8078    29.4987 H     1 STI   0.1500 
 41 C29      2.0458    24.2194    31.5801 C.ar  1 STI  -0.1500 
 42 H29      3.1094    24.1201    31.7391 H     1 STI   0.1500 
 43 C46     -0.4052    25.1229    28.7277 C.3   1 STI   0.2535 
 44 H461    -0.3002    26.2013    28.6086 H     1 STI   0.0800 
 45 H462    -1.4605    24.8536    28.6846 H     1 STI   0.0800 
 46 N48      0.2861    24.4660    27.6341 N.3   1 STI  -0.8100 
 47 C53      0.1959    23.0001    27.7404 C.3   1 STI   0.1100 
 48 H531    -0.8499    22.6996    27.6761 H     1 STI   0.0800 
 49 H532     0.6064    22.6841    28.6994 H     1 STI   0.0800 
 50 C52      1.0060    22.3111    26.5771 C.3   1 STI   0.3430 
 51 H521     0.7631    21.2492    26.5385 H     1 STI   0.0800 
 52 H522     2.0751    22.4331    26.7510 H     1 STI   0.0800 
 53 N51      0.6244    22.9676    25.2762 N.4   1 STI  -0.9590 
 54 H51     -0.3736    22.8536    25.1710 H     1 STI   0.4500 
 55 C54      1.3812    22.3108    24.2411 C.3   1 STI   0.2630 
 56 H541     1.2465    21.2321    24.3214 H     1 STI   0.0800 
 57 H542     2.4377    22.5543    24.3533 H     1 STI   0.0800 
 58 H543     1.0320    22.6489    23.2655 H     1 STI   0.0800 
 59 C50      0.7797    24.4102    25.2010 C.3   1 STI   0.3430 
 60 H501     0.4531    24.7682    24.2246 H     1 STI   0.0800 
 61 H502     1.8245    24.6796    25.3558 H     1 STI   0.0800 
 62 C49     -0.0972    25.0376    26.3133 C.3   1 STI   0.1100 
 63 H491     0.0529    26.1171    26.3279 H     1 STI   0.0800 
 64 H492    -1.1464    24.8193    26.1143 H     1 STI   0.0800 
 65 O29      0.7427    22.9684    34.7116 O.2   1 STI  -0.5700 
 66 C20      5.0335    23.5342    39.7158 C.3   1 STI  -0.0965 
 67 H201     4.3390    23.1174    40.4452 H     1 STI   0.0800 
 68 H202     5.3092    24.5459    40.0133 H     1 STI   0.0800 
 69 H203     5.9278    22.9128    39.6692 H     1 STI   0.0800 
@<TRIPOS>BOND
  1   1   2  1   
  2   1   3  ar  
  3   1   9  ar  
  4   3   4  1   
  5   3   5  ar  
  6   5   6  ar  
  7   5  11  1   
  8   6   7  1   
  9   6   8  ar  
 10   8   9  ar  
 11   9  10  1   
 12  11  12  ar  
 13  11  18  ar  
 14  12  13  1   
 15  12  14  ar  
 16  14  15  1   
 17  14  16  ar  
 18  16  17  ar  
 19  17  18  ar  
 20  17  19  1   
 21  19  20  1   
 22  19  21  1   
 23  21  22  ar  
 24  21  28  ar  
 25  22  23  ar  
 26  22  66  1   
 27  23  24  1   
 28  23  25  ar  
 29  25  26  1   
 30  25  27  ar  
 31  27  28  ar  
 32  27  30  1   
 33  28  29  1   
 34  30  31  1   
 35  30  32  am  
 36  32  33  1   
 37  32  65  2   
 38  33  34  ar  
 39  33  41  ar  
 40  34  35  1   
 41  34  36  ar  
 42  36  37  1   
 43  36  38  ar  
 44  38  39  ar  
 45  38  43  1   
 46  39  40  1   
 47  39  41  ar  
 48  41  42  1   
 49  43  44  1   
 50  43  45  1   
 51  43  46  1   
 52  46  47  1   
 53  46  62  1   
 54  47  48  1   
 55  47  49  1   
 56  47  50  1   
 57  50  51  1   
 58  50  52  1   
 59  50  53  1   
 60  53  54  1   
 61  53  55  1   
 62  53  59  1   
 63  55  56  1   
 64  55  57  1   
 65  55  58  1   
 66  59  60  1   
 67  59  61  1   
 68  59  62  1   
 69  62  63  1   
 70  62  64  1   
 71  66  67  1   
 72  66  68  1   
 73  66  69  1   
@<TRIPOS>SUBSTRUCTURE
  1 STI  65 GROUP 4 A **** 0

# MOE 2012.10 (io_trps.svl 2012.10)
