@<TRIPOS>MOLECULE
2hyy.A
153 102 51 0 0 
SMALL
USER_CHARGES


@<TRIPOS>ATOM
  1 O       -4.8977    16.2930    24.9562 O.3    1 HOH   0.0000 
  2 H1      -3.9377    16.2930    24.9562 H      1 HOH   0.0000 
  3 H2      -5.1880    16.9400    25.6033 H      1 HOH   0.0000 
  4 O      -12.0240     4.6687    46.4183 O.3    2 HOH   0.0000 
  5 H1     -11.0640     4.6687    46.4183 H      2 HOH   0.0000 
  6 H2     -12.3143     5.3158    47.0654 H      2 HOH   0.0000 
  7 O       -7.0088    23.8124    47.4127 O.3    3 HOH   0.0000 
  8 H1      -6.0488    23.8124    47.4127 H      3 HOH   0.0000 
  9 H2      -7.2991    24.4594    48.0597 H      3 HOH   0.0000 
 10 O      -17.7984     7.7851    18.7123 O.3    4 HOH   0.0000 
 11 H1     -16.8384     7.7851    18.7123 H      4 HOH   0.0000 
 12 H2     -18.0886     8.4321    19.3594 H      4 HOH   0.0000 
 13 O      -11.3021     2.9779    40.6626 O.3    5 HOH   0.0000 
 14 H1     -10.3421     2.9779    40.6626 H      5 HOH   0.0000 
 15 H2     -11.5924     3.6250    41.3097 H      5 HOH   0.0000 
 16 O       -3.4770    -0.3573    15.1108 O.3    6 HOH   0.0000 
 17 H1      -2.5170    -0.3573    15.1108 H      6 HOH   0.0000 
 18 H2      -3.7673     0.2898    15.7578 H      6 HOH   0.0000 
 19 O      -13.0825    22.9740    18.8907 O.3    7 HOH   0.0000 
 20 H1     -12.1225    22.9740    18.8907 H      7 HOH   0.0000 
 21 H2     -13.3728    23.6210    19.5377 H      7 HOH   0.0000 
 22 O        3.9592    22.0475    29.0471 O.3    8 HOH  -0.8340 
 23 H1       3.1949    21.4776    28.9612 H      8 HOH   0.4170 
 24 H2       4.4281    21.7070    29.8089 H      8 HOH   0.4170 
 25 O       -4.0486    17.2589    21.1616 O.3    9 HOH   0.0000 
 26 H1      -3.0886    17.2589    21.1616 H      9 HOH   0.0000 
 27 H2      -4.3389    17.9060    21.8087 H      9 HOH   0.0000 
 28 O       -4.2388     4.9542    48.7638 O.3   10 HOH   0.0000 
 29 H1      -3.2788     4.9542    48.7638 H     10 HOH   0.0000 
 30 H2      -4.5291     5.6012    49.4108 H     10 HOH   0.0000 
 31 O       -4.9352    -2.2951    30.4499 O.3   11 HOH   0.0000 
 32 H1      -3.9752    -2.2951    30.4499 H     11 HOH   0.0000 
 33 H2      -5.2255    -1.6481    31.0970 H     11 HOH   0.0000 
 34 O       -4.9037    12.6436    44.3985 O.3   12 HOH   0.0000 
 35 H1      -3.9437    12.6436    44.3985 H     12 HOH   0.0000 
 36 H2      -5.1940    13.2907    45.0455 H     12 HOH   0.0000 
 37 O       -6.4987     6.4439    21.0330 O.3   13 HOH   0.0000 
 38 H1      -5.5387     6.4439    21.0330 H     13 HOH   0.0000 
 39 H2      -6.7889     7.0910    21.6801 H     13 HOH   0.0000 
 40 O        9.2844     4.2153    17.4330 O.3   14 HOH   0.0000 
 41 H1      10.2444     4.2153    17.4330 H     14 HOH   0.0000 
 42 H2       8.9942     4.8624    18.0801 H     14 HOH   0.0000 
 43 O       -6.8488     6.2126    33.8266 O.3   15 HOH   0.0000 
 44 H1      -5.8888     6.2126    33.8266 H     15 HOH   0.0000 
 45 H2      -7.1390     6.8596    34.4736 H     15 HOH   0.0000 
 46 O       -2.9818     7.9377    33.2720 O.3   16 HOH   0.0000 
 47 H1      -2.0218     7.9377    33.2720 H     16 HOH   0.0000 
 48 H2      -3.2721     8.5848    33.9191 H     16 HOH   0.0000 
 49 O        2.9852     1.5045    36.1299 O.3   17 HOH   0.0000 
 50 H1       3.9452     1.5045    36.1299 H     17 HOH   0.0000 
 51 H2       2.6949     2.1516    36.7770 H     17 HOH   0.0000 
 52 O       -7.9180     0.1964    36.2793 O.3   18 HOH   0.0000 
 53 H1      -6.9580     0.1964    36.2793 H     18 HOH   0.0000 
 54 H2      -8.2082     0.8435    36.9263 H     18 HOH   0.0000 
 55 O       -2.4628     3.9001    31.7171 O.3   19 HOH   0.0000 
 56 H1      -1.5028     3.9001    31.7171 H     19 HOH   0.0000 
 57 H2      -2.7531     4.5471    32.3641 H     19 HOH   0.0000 
 58 O      -14.3961     5.7081    13.7191 O.3   20 HOH   0.0000 
 59 H1     -13.4361     5.7081    13.7191 H     20 HOH   0.0000 
 60 H2     -14.6863     6.3551    14.3661 H     20 HOH   0.0000 
 61 O       -0.8720    30.0724    34.6800 O.3   21 HOH   0.0000 
 62 H1       0.0880    30.0724    34.6800 H     21 HOH   0.0000 
 63 H2      -1.1622    30.7194    35.3270 H     21 HOH   0.0000 
 64 O      -16.6016    11.3077    11.8627 O.3   22 HOH   0.0000 
 65 H1     -15.6416    11.3077    11.8627 H     22 HOH   0.0000 
 66 H2     -16.8919    11.9547    12.5097 H     22 HOH   0.0000 
 67 O        0.7908     4.0503    25.1015 O.3   23 HOH   0.0000 
 68 H1       1.7508     4.0503    25.1015 H     23 HOH   0.0000 
 69 H2       0.5005     4.6973    25.7486 H     23 HOH   0.0000 
 70 O        1.0274    18.7457    27.1868 O.3   24 HOH  -0.8340 
 71 H1       1.2728    19.4367    27.8020 H     24 HOH   0.4170 
 72 H2       0.8140    17.9953    27.7415 H     24 HOH   0.4170 
 73 O      -19.7526     0.4243    39.0595 O.3   25 HOH   0.0000 
 74 H1     -18.7926     0.4243    39.0595 H     25 HOH   0.0000 
 75 H2     -20.0429     1.0714    39.7066 H     25 HOH   0.0000 
 76 O      -13.0971     4.8033    22.7446 O.3   26 HOH   0.0000 
 77 H1     -12.1371     4.8033    22.7446 H     26 HOH   0.0000 
 78 H2     -13.3873     5.4504    23.3916 H     26 HOH   0.0000 
 79 O        7.0430    12.5016    16.5557 O.3   27 HOH   0.0000 
 80 H1       8.0030    12.5016    16.5557 H     27 HOH   0.0000 
 81 H2       6.7527    13.1487    17.2028 H     27 HOH   0.0000 
 82 O        1.7907    16.1707    30.2767 O.3   28 HOH   0.0000 
 83 H1       2.7507    16.1707    30.2767 H     28 HOH   0.0000 
 84 H2       1.5004    16.8177    30.9237 H     28 HOH   0.0000 
 85 O      -11.5008    -3.8584    27.0889 O.3   29 HOH   0.0000 
 86 H1     -10.5408    -3.8584    27.0889 H     29 HOH   0.0000 
 87 H2     -11.7911    -3.2114    27.7360 H     29 HOH   0.0000 
 88 O        1.5889     0.8283    32.7561 O.3   30 HOH   0.0000 
 89 H1       2.5489     0.8283    32.7561 H     30 HOH   0.0000 
 90 H2       1.2986     1.4754    33.4031 H     30 HOH   0.0000 
 91 O      -12.8566     4.9726    44.0165 O.3   31 HOH   0.0000 
 92 H1     -11.8966     4.9726    44.0165 H     31 HOH   0.0000 
 93 H2     -13.1468     5.6196    44.6635 H     31 HOH   0.0000 
 94 O      -18.0908     6.6428    16.3946 O.3   32 HOH   0.0000 
 95 H1     -17.1308     6.6428    16.3946 H     32 HOH   0.0000 
 96 H2     -18.3811     7.2898    17.0416 H     32 HOH   0.0000 
 97 O       -8.3699     6.7989    22.6644 O.3   33 HOH   0.0000 
 98 H1      -7.4099     6.7989    22.6644 H     33 HOH   0.0000 
 99 H2      -8.6602     7.4460    23.3115 H     33 HOH   0.0000 
100 O       -5.3616    -8.4729    27.0763 O.3   34 HOH   0.0000 
101 H1      -4.4016    -8.4729    27.0763 H     34 HOH   0.0000 
102 H2      -5.6519    -7.8258    27.7233 H     34 HOH   0.0000 
103 O      -12.1055    -1.5331    25.8431 O.3   35 HOH   0.0000 
104 H1     -11.1455    -1.5331    25.8431 H     35 HOH   0.0000 
105 H2     -12.3958    -0.8860    26.4901 H     35 HOH   0.0000 
106 O       -5.1828     0.6668    29.3234 O.3   36 HOH   0.0000 
107 H1      -4.2228     0.6668    29.3234 H     36 HOH   0.0000 
108 H2      -5.4731     1.3139    29.9705 H     36 HOH   0.0000 
109 O      -13.6312    11.7810    48.9712 O.3   37 HOH   0.0000 
110 H1     -12.6712    11.7810    48.9712 H     37 HOH   0.0000 
111 H2     -13.9214    12.4281    49.6182 H     37 HOH   0.0000 
112 O       -2.5444    11.8631    44.7991 O.3   38 HOH   0.0000 
113 H1      -1.5844    11.8631    44.7991 H     38 HOH   0.0000 
114 H2      -2.8347    12.5102    45.4462 H     38 HOH   0.0000 
115 O        7.1961     7.4107    30.2154 O.3   39 HOH   0.0000 
116 H1       8.1561     7.4107    30.2154 H     39 HOH   0.0000 
117 H2       6.9058     8.0578    30.8625 H     39 HOH   0.0000 
118 O        4.8624    21.4294    34.1411 O.3   40 HOH  -0.8340 
119 H1       4.8978    22.2601    33.6669 H     40 HOH   0.4170 
120 H2       3.9991    21.0714    33.9340 H     40 HOH   0.4170 
121 O       12.8400    19.4518    31.7801 O.3   41 HOH   0.0000 
122 H1      13.8000    19.4518    31.7801 H     41 HOH   0.0000 
123 H2      12.5497    20.0988    32.4271 H     41 HOH   0.0000 
124 O        4.5277    14.5997    10.4777 O.3   42 HOH   0.0000 
125 H1       5.4877    14.5997    10.4777 H     42 HOH   0.0000 
126 H2       4.2374    15.2467    11.1247 H     42 HOH   0.0000 
127 O       -4.8324     9.9067    33.4834 O.3   43 HOH   0.0000 
128 H1      -3.8724     9.9067    33.4834 H     43 HOH   0.0000 
129 H2      -5.1226    10.5537    34.1304 H     43 HOH   0.0000 
130 O       -3.6995    14.6446    22.7311 O.3   44 HOH   0.0000 
131 H1      -2.7395    14.6446    22.7311 H     44 HOH   0.0000 
132 H2      -3.9897    15.2917    23.3781 H     44 HOH   0.0000 
133 O       -0.3656    25.5574    21.4690 O.3   45 HOH  -0.8340 
134 H1       0.3142    26.1438    21.1369 H     45 HOH   0.4170 
135 H2      -0.8655    25.3056    20.6925 H     45 HOH   0.4170 
136 O       -1.7982    -1.0657    12.2872 O.3   46 HOH   0.0000 
137 H1      -0.8382    -1.0657    12.2872 H     46 HOH   0.0000 
138 H2      -2.0885    -0.4187    12.9342 H     46 HOH   0.0000 
139 O      -19.9499    10.0186    53.1596 O.3   47 HOH   0.0000 
140 H1     -18.9899    10.0186    53.1596 H     47 HOH   0.0000 
141 H2     -20.2401    10.6657    53.8066 H     47 HOH   0.0000 
142 O        1.8816     3.4293    32.9323 O.3   48 HOH   0.0000 
143 H1       2.8416     3.4293    32.9323 H     48 HOH   0.0000 
144 H2       1.5913     4.0764    33.5793 H     48 HOH   0.0000 
145 O       -3.6710     6.2157    50.9505 O.3   49 HOH   0.0000 
146 H1      -2.7110     6.2157    50.9505 H     49 HOH   0.0000 
147 H2      -3.9612     6.8627    51.5975 H     49 HOH   0.0000 
148 O       -3.2835    12.5605    27.2447 O.3   50 HOH   0.0000 
149 H1      -2.3235    12.5605    27.2447 H     50 HOH   0.0000 
150 H2      -3.5738    13.2076    27.8918 H     50 HOH   0.0000 
151 O      -14.3043    29.2964    30.4038 O.3   51 HOH   0.0000 
152 H1     -13.3443    29.2964    30.4038 H     51 HOH   0.0000 
153 H2     -14.5946    29.9435    31.0509 H     51 HOH   0.0000 
@<TRIPOS>BOND
  1   1   2  1   
  2   1   3  1   
  3   4   5  1   
  4   4   6  1   
  5   7   8  1   
  6   7   9  1   
  7  10  11  1   
  8  10  12  1   
  9  13  14  1   
 10  13  15  1   
 11  16  17  1   
 12  16  18  1   
 13  19  20  1   
 14  19  21  1   
 15  22  23  1   
 16  22  24  1   
 17  25  26  1   
 18  25  27  1   
 19  28  29  1   
 20  28  30  1   
 21  31  32  1   
 22  31  33  1   
 23  34  35  1   
 24  34  36  1   
 25  37  38  1   
 26  37  39  1   
 27  40  41  1   
 28  40  42  1   
 29  43  44  1   
 30  43  45  1   
 31  46  47  1   
 32  46  48  1   
 33  49  50  1   
 34  49  51  1   
 35  52  53  1   
 36  52  54  1   
 37  55  56  1   
 38  55  57  1   
 39  58  59  1   
 40  58  60  1   
 41  61  62  1   
 42  61  63  1   
 43  64  65  1   
 44  64  66  1   
 45  67  68  1   
 46  67  69  1   
 47  70  71  1   
 48  70  72  1   
 49  73  74  1   
 50  73  75  1   
 51  76  77  1   
 52  76  78  1   
 53  79  80  1   
 54  79  81  1   
 55  82  83  1   
 56  82  84  1   
 57  85  86  1   
 58  85  87  1   
 59  88  89  1   
 60  88  90  1   
 61  91  92  1   
 62  91  93  1   
 63  94  95  1   
 64  94  96  1   
 65  97  98  1   
 66  97  99  1   
 67 100 101  1   
 68 100 102  1   
 69 103 104  1   
 70 103 105  1   
 71 106 107  1   
 72 106 108  1   
 73 109 110  1   
 74 109 111  1   
 75 112 113  1   
 76 112 114  1   
 77 115 116  1   
 78 115 117  1   
 79 118 119  1   
 80 118 120  1   
 81 121 122  1   
 82 121 123  1   
 83 124 125  1   
 84 124 126  1   
 85 127 128  1   
 86 127 129  1   
 87 130 131  1   
 88 130 132  1   
 89 133 134  1   
 90 133 135  1   
 91 136 137  1   
 92 136 138  1   
 93 139 140  1   
 94 139 141  1   
 95 142 143  1   
 96 142 144  1   
 97 145 146  1   
 98 145 147  1   
 99 148 149  1   
100 148 150  1   
101 151 152  1   
102 151 153  1   
@<TRIPOS>SUBSTRUCTURE
  1 HOH   1 GROUP 4 A **** 0
  2 HOH   4 GROUP 4 A **** 0
  3 HOH   7 GROUP 4 A **** 0
  4 HOH  10 GROUP 4 A **** 0
  5 HOH  13 GROUP 4 A **** 0
  6 HOH  16 GROUP 4 A **** 0
  7 HOH  19 GROUP 4 A **** 0
  8 HOH  22 GROUP 4 A **** 0
  9 HOH  25 GROUP 4 A **** 0
 10 HOH  28 GROUP 4 A **** 0
 11 HOH  31 GROUP 4 A **** 0
 12 HOH  34 GROUP 4 A **** 0
 13 HOH  37 GROUP 4 A **** 0
 14 HOH  40 GROUP 4 A **** 0
 15 HOH  43 GROUP 4 A **** 0
 16 HOH  46 GROUP 4 A **** 0
 17 HOH  49 GROUP 4 A **** 0
 18 HOH  52 GROUP 4 A **** 0
 19 HOH  55 GROUP 4 A **** 0
 20 HOH  58 GROUP 4 A **** 0
 21 HOH  61 GROUP 4 A **** 0
 22 HOH  64 GROUP 4 A **** 0
 23 HOH  67 GROUP 4 A **** 0
 24 HOH  70 GROUP 4 A **** 0
 25 HOH  73 GROUP 4 A **** 0
 26 HOH  76 GROUP 4 A **** 0
 27 HOH  79 GROUP 4 A **** 0
 28 HOH  82 GROUP 4 A **** 0
 29 HOH  85 GROUP 4 A **** 0
 30 HOH  88 GROUP 4 A **** 0
 31 HOH  91 GROUP 4 A **** 0
 32 HOH  94 GROUP 4 A **** 0
 33 HOH  97 GROUP 4 A **** 0
 34 HOH 100 GROUP 4 A **** 0
 35 HOH 103 GROUP 4 A **** 0
 36 HOH 106 GROUP 4 A **** 0
 37 HOH 109 GROUP 4 A **** 0
 38 HOH 112 GROUP 4 A **** 0
 39 HOH 115 GROUP 4 A **** 0
 40 HOH 118 GROUP 4 A **** 0
 41 HOH 121 GROUP 4 A **** 0
 42 HOH 124 GROUP 4 A **** 0
 43 HOH 127 GROUP 4 A **** 0
 44 HOH 130 GROUP 4 A **** 0
 45 HOH 133 GROUP 4 A **** 0
 46 HOH 136 GROUP 4 A **** 0
 47 HOH 139 GROUP 4 A **** 0
 48 HOH 142 GROUP 4 A **** 0
 49 HOH 145 GROUP 4 A **** 0
 50 HOH 148 GROUP 4 A **** 0
 51 HOH 151 GROUP 4 A **** 0

# MOE 2012.10 (io_trps.svl 2012.10)
