@<TRIPOS>MOLECULE
2g2i.B
38 40 1 0 0 
SMALL
USER_CHARGES


@<TRIPOS>ATOM
  1 PB       2.6238    10.5918    37.8610 P.3   1 ADP   1.3712 
  2 O1B      1.3678    11.3530    38.1174 O.co2 1 ADP  -1.0333 
  3 O2B      2.4188     9.7700    36.4826 O.co2 1 ADP  -1.0333 
  4 O3B      2.9161     9.5845    39.0994 O.co2 1 ADP  -1.0333 
  5 PA       4.2556    12.4760    38.9777 P.3   1 ADP   1.4424 
  6 O1A      5.6144    12.1082    39.4318 O.co2 1 ADP  -0.9500 
  7 O2A      4.2688    14.0632    38.6114 O.co2 1 ADP  -0.9500 
  8 O3A      3.8931    11.5893    37.6542 O.3   1 ADP  -0.5424 
  9 O5'      3.2341    12.1561    40.1849 O.3   1 ADP  -0.5512 
 10 C5'      2.3296    13.2616    40.2868 C.3   1 ADP   0.1200 
 11 H5'1     1.5993    13.1996    39.4800 H     1 ADP   0.0800 
 12 H5'2     2.8919    14.1911    40.1972 H     1 ADP   0.0800 
 13 C4'      1.5987    13.2500    41.6202 C.3   1 ADP   0.2000 
 14 H4'      1.8325    12.3376    42.1688 H     1 ADP   0.0800 
 15 O4'      2.0115    14.4285    42.3640 O.3   1 ADP  -0.5600 
 16 C3'      0.0825    13.3237    41.3806 C.3   1 ADP   0.2000 
 17 H3'     -0.1483    13.3691    40.3163 H     1 ADP   0.0800 
 18 O3'     -0.5746    12.1595    41.8562 O.3   1 ADP  -0.6800 
 19 H3'     -1.1974    12.4339    42.5333 H     1 ADP   0.4000 
 20 C2'     -0.4001    14.5863    42.0878 C.3   1 ADP  -0.1526 
 21 H2'     -0.8696    15.2676    41.3783 H     1 ADP   0.0800 
 22 O2'     -1.4096    14.3072    43.0638 O.3   1 ADP  -0.9274 
 23 C1'      0.8403    15.2167    42.7284 C.3   1 ADP   0.4556 
 24 H1'      0.7728    15.2182    43.8163 H     1 ADP   0.0800 
 25 N9       0.9389    16.6218    42.2813 N.pl3 1 ADP   0.0476 
 26 C8       1.5160    17.0979    41.1364 C.2   1 ADP   0.0365 
 27 H8       1.9965    16.4875    40.3861 H     1 ADP   0.1500 
 28 N7       1.4022    18.3924    41.0825 N.2   1 ADP  -0.5653 
 29 C5       0.7595    18.8391    42.1805 C.ar  1 ADP   0.2272 
 30 C6       0.3439    20.1189    42.6641 C.ar  1 ADP   0.4100 
 31 N6       0.6103    21.2689    41.9433 N.pl3 1 ADP  -0.9000 
 32 H61      0.3186    22.1675    42.3002 H     1 ADP   0.4000 
 33 H62      1.0966    21.2099    41.0600 H     1 ADP   0.4000 
 34 N1      -0.3057    20.1885    43.8459 N.ar  1 ADP  -0.6200 
 35 C2      -0.5781    19.0912    44.5641 C.ar  1 ADP   0.4700 
 36 H2      -1.1038    19.1896    45.5023 H     1 ADP   0.1500 
 37 N3      -0.2117    17.8756    44.1419 N.ar  1 ADP  -0.5670 
 38 C4       0.4484    17.7093    42.9691 C.ar  1 ADP   0.1054 
@<TRIPOS>BOND
  1   1   2  ar  
  2   1   3  ar  
  3   1   4  ar  
  4   1   8  1   
  5   5   6  ar  
  6   5   7  ar  
  7   5   8  1   
  8   5   9  1   
  9   9  10  1   
 10  10  11  1   
 11  10  12  1   
 12  10  13  1   
 13  13  14  1   
 14  13  15  1   
 15  13  16  1   
 16  15  23  1   
 17  16  17  1   
 18  16  18  1   
 19  16  20  1   
 20  18  19  1   
 21  20  21  1   
 22  20  22  1   
 23  20  23  1   
 24  23  24  1   
 25  23  25  1   
 26  25  26  1   
 27  25  38  1   
 28  26  27  1   
 29  26  28  2   
 30  28  29  1   
 31  29  30  ar  
 32  29  38  ar  
 33  30  31  1   
 34  30  34  ar  
 35  31  32  1   
 36  31  33  1   
 37  34  35  ar  
 38  35  36  1   
 39  35  37  ar  
 40  37  38  ar  
@<TRIPOS>SUBSTRUCTURE
  1 ADP  15 GROUP 4 B **** 0

# MOE 2012.10 (io_trps.svl 2012.10)
