@<TRIPOS>MOLECULE
3qri.B
69 73 1 0 0 
SMALL
USER_CHARGES


@<TRIPOS>ATOM
  1 C1       3.1723    23.8322    30.6014 C.ar  1 Q919  -0.0230 
  2 C2       3.8408    24.5022    29.5690 C.ar  1 Q919  -0.1500 
  3 H2       3.3760    25.3759    29.1364 H     1 Q919   0.1500 
  4 C3       5.0740    24.0951    29.0755 C.ar  1 Q919  -0.1500 
  5 H3       5.4897    24.5802    28.2048 H     1 Q919   0.1500 
  6 C4       5.7722    23.0741    29.6908 C.ar  1 Q919   0.3100 
  7 C5       5.0963    22.2962    30.6250 C.ar  1 Q919   0.0000 
  8 C6       3.8483    22.7082    31.1158 C.ar  1 Q919  -0.1500 
  9 H6       3.3901    22.1446    31.9151 H     1 Q919   0.1500 
 10 C9       7.4976    21.4696    29.5249 C.ar  1 Q919   0.1600 
 11 H9       8.3708    21.0933    29.0126 H     1 Q919   0.1500 
 12 N10      6.9245    22.6288    29.1244 N.ar  1 Q919  -0.6200 
 13 C13      5.6968    21.1213    31.0890 C.ar  1 Q919  -0.1500 
 14 H13      5.1922    20.5004    31.8145 H     1 Q919   0.1500 
 15 C14      6.9578    20.7587    30.6036 C.ar  1 Q919  -0.1500 
 16 H14      7.5057    19.9439    31.0534 H     1 Q919   0.1500 
 17 C22     -0.2171    21.8749    42.4464 C.ar  1 Q919   0.1600 
 18 H22     -1.0429    22.5695    42.4919 H     1 Q919   0.1500 
 19 N23     -0.2059    20.8108    43.2586 N.ar  1 Q919  -0.6200 
 20 C24      0.8034    19.9167    43.2238 C.ar  1 Q919   0.3962 
 21 C25      1.8589    20.0914    42.3296 C.ar  1 Q919  -0.1500 
 22 H25      2.6701    19.3790    42.2988 H     1 Q919   0.1500 
 23 C26      1.8584    21.1935    41.4757 C.ar  1 Q919   0.0825 
 24 C27      0.8123    22.0991    41.5495 C.ar  1 Q919  -0.1500 
 25 H27      0.8006    22.9716    40.9131 H     1 Q919   0.1500 
 26 C34      1.7491    22.0857    37.1610 C.ar  1 Q919  -0.1500 
 27 H34      0.9108    21.8774    36.5127 H     1 Q919   0.1500 
 28 C35      1.7535    21.6185    38.4812 C.ar  1 Q919  -0.1500 
 29 H35      0.9006    21.0728    38.8570 H     1 Q919   0.1500 
 30 C36      2.8469    21.8496    39.3166 C.ar  1 Q919   0.0825 
 31 C37      3.9384    22.5618    38.8351 C.ar  1 Q919  -0.1500 
 32 H37      4.7886    22.7505    39.4738 H     1 Q919   0.1500 
 33 C38      3.9297    23.0302    37.5255 C.ar  1 Q919   0.1900 
 34 C39      2.8476    22.8303    36.6846 C.ar  1 Q919   0.1170 
 35 C46     -0.1313    24.1629    30.7394 C.2   1 Q919   0.1078 
 36 C47      0.0975    23.9490    32.0858 C.2   1 Q919  -0.1500 
 37 H47     -0.6347    23.7279    32.8483 H     1 Q919   0.1500 
 38 C48      1.4660    24.0787    32.2472 C.2   1 Q919  -0.0876 
 39 N49      1.9856    24.3213    31.0152 N.pl3 1 Q919   0.5926 
 40 N50      0.9799    24.3764    30.0257 N.2   1 Q919  -0.7068 
 41 N56      2.3223    23.9374    33.3074 N.am  1 Q919  -0.4940 
 42 H56      3.2812    24.2265    33.1773 H     1 Q919   0.3700 
 43 C58      1.9741    23.4361    34.5210 C.2   1 Q919   0.6900 
 44 N60      2.9621    23.3138    35.4155 N.am  1 Q919  -0.5470 
 45 H60      3.8823    23.6086    35.1214 H     1 Q919   0.3700 
 46 O63      0.8274    23.1158    34.8142 O.2   1 Q919  -0.5700 
 47 O65      2.9131    21.3846    40.6068 O.3   1 Q919  -0.1650 
 48 F68      4.9821    23.7098    37.0720 F     1 Q919  -0.1900 
 49 C70      0.7583    18.7262    44.1366 C.2   1 Q919   0.5438 
 50 O72      1.6376    17.9071    44.0506 O.2   1 Q919  -0.5700 
 51 N74     -0.2395    18.5795    45.0030 N.am  1 Q919  -0.7301 
 52 H74     -1.0800    19.1268    44.8842 H     1 Q919   0.3700 
 53 C76     -0.1500    17.6540    46.1125 C.3   1 Q919   0.0601 
 54 H761     0.8168    17.1511    46.0890 H     1 Q919   0.0800 
 55 H762    -0.9465    16.9141    46.0336 H     1 Q919   0.0800 
 56 H763    -0.2529    18.1999    47.0503 H     1 Q919   0.0800 
 57 C79     -1.5250    24.3727    30.1786 C.3   1 Q919   0.1810 
 58 C81     -2.5130    23.6975    31.1190 C.3   1 Q919  -0.2400 
 59 H811    -2.4444    24.1535    32.1066 H     1 Q919   0.0800 
 60 H812    -2.2777    22.6357    31.1919 H     1 Q919   0.0800 
 61 H813    -3.5246    23.8197    30.7319 H     1 Q919   0.0800 
 62 C83     -1.8409    25.8562    30.0562 C.3   1 Q919  -0.2400 
 63 H831    -1.7620    26.3265    31.0363 H     1 Q919   0.0800 
 64 H832    -2.8537    25.9816    29.6735 H     1 Q919   0.0800 
 65 H833    -1.1332    26.3230    29.3711 H     1 Q919   0.0800 
 66 C85     -1.6374    23.7189    28.8006 C.3   1 Q919  -0.2400 
 67 H851    -1.4119    22.6557    28.8834 H     1 Q919   0.0800 
 68 H852    -0.9300    24.1882    28.1169 H     1 Q919   0.0800 
 69 H853    -2.6505    23.8468    28.4193 H     1 Q919   0.0800 
@<TRIPOS>BOND
  1   1   2  ar  
  2   1   8  ar  
  3   1  39  1   
  4   2   3  1   
  5   2   4  ar  
  6   4   5  1   
  7   4   6  ar  
  8   6   7  ar  
  9   6  12  ar  
 10   7   8  ar  
 11   7  13  ar  
 12   8   9  1   
 13  10  11  1   
 14  10  12  ar  
 15  10  15  ar  
 16  13  14  1   
 17  13  15  ar  
 18  15  16  1   
 19  17  18  1   
 20  17  19  ar  
 21  17  24  ar  
 22  19  20  ar  
 23  20  21  ar  
 24  20  49  1   
 25  21  22  1   
 26  21  23  ar  
 27  23  24  ar  
 28  23  47  1   
 29  24  25  1   
 30  26  27  1   
 31  26  28  ar  
 32  26  34  ar  
 33  28  29  1   
 34  28  30  ar  
 35  30  31  ar  
 36  30  47  1   
 37  31  32  1   
 38  31  33  ar  
 39  33  34  ar  
 40  33  48  1   
 41  34  44  1   
 42  35  36  1   
 43  35  40  2   
 44  35  57  1   
 45  36  37  1   
 46  36  38  2   
 47  38  39  1   
 48  38  41  1   
 49  39  40  1   
 50  41  42  1   
 51  41  43  am  
 52  43  44  am  
 53  43  46  2   
 54  44  45  1   
 55  49  50  2   
 56  49  51  am  
 57  51  52  1   
 58  51  53  1   
 59  53  54  1   
 60  53  55  1   
 61  53  56  1   
 62  57  58  1   
 63  57  62  1   
 64  57  66  1   
 65  58  59  1   
 66  58  60  1   
 67  58  61  1   
 68  62  63  1   
 69  62  64  1   
 70  62  65  1   
 71  66  67  1   
 72  66  68  1   
 73  66  69  1   
@<TRIPOS>SUBSTRUCTURE
  1 Q919  44 GROUP 4 B **** 0

# MOE 2012.10 (io_trps.svl 2012.10)
