@<TRIPOS>MOLECULE
3qri.B
579 386 193 0 0 
SMALL
USER_CHARGES


@<TRIPOS>ATOM
  1 O       -6.3889    29.4149    39.2011 O.3     1 HOH   0.0000 
  2 H1      -5.4289    29.4149    39.2011 H       1 HOH   0.0000 
  3 H2      -6.6792    30.0619    39.8481 H       1 HOH   0.0000 
  4 O        4.3877    18.9416    27.9326 O.3     2 HOH  -0.8340 
  5 H1       3.8561    18.5694    27.2289 H       2 HOH   0.4170 
  6 H2       3.7557    19.3696    28.5101 H       2 HOH   0.4170 
  7 O       -4.3547    17.2780    21.3256 O.3     3 HOH   0.0000 
  8 H1      -3.3947    17.2780    21.3256 H       3 HOH   0.0000 
  9 H2      -4.6450    17.9250    21.9727 H       3 HOH   0.0000 
 10 O       -2.2525     4.9799    26.7018 O.3     4 HOH   0.0000 
 11 H1      -1.2925     4.9799    26.7018 H       4 HOH   0.0000 
 12 H2      -2.5428     5.6270    27.3489 H       4 HOH   0.0000 
 13 O       -9.9241    28.7341    41.5690 O.3     5 HOH   0.0000 
 14 H1      -8.9641    28.7341    41.5690 H       5 HOH   0.0000 
 15 H2     -10.2144    29.3811    42.2160 H       5 HOH   0.0000 
 16 O      -14.6773    23.5635    43.9894 O.3     6 HOH   0.0000 
 17 H1     -13.7173    23.5635    43.9894 H       6 HOH   0.0000 
 18 H2     -14.9676    24.2106    44.6364 H       6 HOH   0.0000 
 19 O       -3.1634     7.7820    33.1169 O.3     7 HOH   0.0000 
 20 H1      -2.2034     7.7820    33.1169 H       7 HOH   0.0000 
 21 H2      -3.4537     8.4290    33.7639 H       7 HOH   0.0000 
 22 O      -14.4274    29.1637    30.9520 O.3     8 HOH   0.0000 
 23 H1     -13.4674    29.1637    30.9520 H       8 HOH   0.0000 
 24 H2     -14.7177    29.8108    31.5990 H       8 HOH   0.0000 
 25 O        9.6716    22.3222    32.3733 O.3     9 HOH  -0.8340 
 26 H1       9.9597    22.4779    31.4739 H       9 HOH   0.4170 
 27 H2       8.8175    22.7507    32.4292 H       9 HOH   0.4170 
 28 O      -16.2732     4.3784    48.6024 O.3    10 HOH   0.0000 
 29 H1     -15.3132     4.3784    48.6024 H      10 HOH   0.0000 
 30 H2     -16.5635     5.0255    49.2495 H      10 HOH   0.0000 
 31 O       -9.0152     6.9969    22.7110 O.3    11 HOH   0.0000 
 32 H1      -8.0552     6.9969    22.7110 H      11 HOH   0.0000 
 33 H2      -9.3055     7.6439    23.3581 H      11 HOH   0.0000 
 34 O        2.9256    14.6342    27.5383 O.3    12 HOH   0.0000 
 35 H1       3.8856    14.6342    27.5383 H      12 HOH   0.0000 
 36 H2       2.6353    15.2812    28.1853 H      12 HOH   0.0000 
 37 O        2.1984    12.7672    25.1093 O.3    13 HOH   0.0000 
 38 H1       3.1584    12.7672    25.1093 H      13 HOH   0.0000 
 39 H2       1.9081    13.4143    25.7563 H      13 HOH   0.0000 
 40 O       -5.1703    16.3380    24.9513 O.3    14 HOH   0.0000 
 41 H1      -4.2103    16.3380    24.9513 H      14 HOH   0.0000 
 42 H2      -5.4606    16.9851    25.5984 H      14 HOH   0.0000 
 43 O       -5.5041    23.4884    47.7902 O.3    15 HOH   0.0000 
 44 H1      -4.5441    23.4884    47.7902 H      15 HOH   0.0000 
 45 H2      -5.7944    24.1355    48.4373 H      15 HOH   0.0000 
 46 O       -6.9232     6.4457    21.0223 O.3    16 HOH   0.0000 
 47 H1      -5.9632     6.4457    21.0223 H      16 HOH   0.0000 
 48 H2      -7.2134     7.0927    21.6694 H      16 HOH   0.0000 
 49 O       -3.4777    12.5408    27.1016 O.3    17 HOH   0.0000 
 50 H1      -2.5177    12.5408    27.1016 H      17 HOH   0.0000 
 51 H2      -3.7680    13.1879    27.7486 H      17 HOH   0.0000 
 52 O      -15.5267    22.6347    27.4884 O.3    18 HOH   0.0000 
 53 H1     -14.5667    22.6347    27.4884 H      18 HOH   0.0000 
 54 H2     -15.8170    23.2817    28.1355 H      18 HOH   0.0000 
 55 O        5.1024    11.8032    47.8844 O.3    19 HOH   0.0000 
 56 H1       6.0624    11.8032    47.8844 H      19 HOH   0.0000 
 57 H2       4.8121    12.4503    48.5314 H      19 HOH   0.0000 
 58 O        7.6980    13.7104    41.3398 O.3    20 HOH   0.0000 
 59 H1       8.6580    13.7104    41.3398 H      20 HOH   0.0000 
 60 H2       7.4077    14.3574    41.9869 H      20 HOH   0.0000 
 61 O      -29.5183    21.9978    32.7095 O.3    21 HOH   0.0000 
 62 H1     -28.5583    21.9978    32.7095 H      21 HOH   0.0000 
 63 H2     -29.8086    22.6449    33.3566 H      21 HOH   0.0000 
 64 O       16.1003    23.9274    45.9210 O.3    22 HOH   0.0000 
 65 H1      17.0603    23.9274    45.9210 H      22 HOH   0.0000 
 66 H2      15.8100    24.5744    46.5681 H      22 HOH   0.0000 
 67 O       12.0191    13.9809    48.5720 O.3    23 HOH   0.0000 
 68 H1      12.9791    13.9809    48.5720 H      23 HOH   0.0000 
 69 H2      11.7288    14.6279    49.2190 H      23 HOH   0.0000 
 70 O        2.1476    15.7572    30.2918 O.3    24 HOH   0.0000 
 71 H1       3.1076    15.7572    30.2918 H      24 HOH   0.0000 
 72 H2       1.8574    16.4043    30.9388 H      24 HOH   0.0000 
 73 O        4.8645     0.6268    20.0100 O.3    25 HOH   0.0000 
 74 H1       5.8245     0.6268    20.0100 H      25 HOH   0.0000 
 75 H2       4.5742     1.2739    20.6570 H      25 HOH   0.0000 
 76 O      -12.6274     5.1942    45.0865 O.3    26 HOH   0.0000 
 77 H1     -11.6674     5.1942    45.0865 H      26 HOH   0.0000 
 78 H2     -12.9177     5.8413    45.7335 H      26 HOH   0.0000 
 79 O      -13.6704     5.1668    22.9752 O.3    27 HOH   0.0000 
 80 H1     -12.7104     5.1668    22.9752 H      27 HOH   0.0000 
 81 H2     -13.9607     5.8139    23.6223 H      27 HOH   0.0000 
 82 O       -6.9157    23.5575    16.2521 O.3    28 HOH   0.0000 
 83 H1      -5.9557    23.5575    16.2521 H      28 HOH   0.0000 
 84 H2      -7.2059    24.2045    16.8991 H      28 HOH   0.0000 
 85 O      -11.7023    18.3168    47.7534 O.3    29 HOH   0.0000 
 86 H1     -10.7423    18.3168    47.7534 H      29 HOH   0.0000 
 87 H2     -11.9925    18.9638    48.4004 H      29 HOH   0.0000 
 88 O      -17.2040    11.8615    12.3525 O.3    30 HOH   0.0000 
 89 H1     -16.2440    11.8615    12.3525 H      30 HOH   0.0000 
 90 H2     -17.4943    12.5085    12.9996 H      30 HOH   0.0000 
 91 O       -2.4334     3.3826    28.8524 O.3    31 HOH   0.0000 
 92 H1      -1.4734     3.3826    28.8524 H      31 HOH   0.0000 
 93 H2      -2.7236     4.0297    29.4995 H      31 HOH   0.0000 
 94 O       -4.1115    12.4119    44.3970 O.3    32 HOH   0.0000 
 95 H1      -3.1515    12.4119    44.3970 H      32 HOH   0.0000 
 96 H2      -4.4017    13.0589    45.0440 H      32 HOH   0.0000 
 97 O       -5.7050    10.4088    46.6912 O.3    33 HOH   0.0000 
 98 H1      -4.7450    10.4088    46.6912 H      33 HOH   0.0000 
 99 H2      -5.9952    11.0558    47.3382 H      33 HOH   0.0000 
100 O        0.7998    18.6809    26.9436 O.3    34 HOH  -0.8340 
101 H1       0.0927    19.3127    26.8135 H      34 HOH   0.4170 
102 H2       1.1770    18.9142    27.7919 H      34 HOH   0.4170 
103 O       -7.1084     5.9030    33.7410 O.3    35 HOH   0.0000 
104 H1      -6.1484     5.9030    33.7410 H      35 HOH   0.0000 
105 H2      -7.3987     6.5500    34.3881 H      35 HOH   0.0000 
106 O       -7.1076    16.8009    14.9669 O.3    36 HOH   0.0000 
107 H1      -6.1476    16.8009    14.9669 H      36 HOH   0.0000 
108 H2      -7.3978    17.4480    15.6140 H      36 HOH   0.0000 
109 O       -9.1428    22.3446    15.9975 O.3    37 HOH   0.0000 
110 H1      -8.1828    22.3446    15.9975 H      37 HOH   0.0000 
111 H2      -9.4331    22.9917    16.6445 H      37 HOH   0.0000 
112 O       -3.3190    31.8316    17.7023 O.3    38 HOH   0.0000 
113 H1      -2.3590    31.8316    17.7023 H      38 HOH   0.0000 
114 H2      -3.6093    32.4786    18.3494 H      38 HOH   0.0000 
115 O       -2.9840     1.3851    18.6292 O.3    39 HOH   0.0000 
116 H1      -2.0240     1.3851    18.6292 H      39 HOH   0.0000 
117 H2      -3.2743     2.0321    19.2763 H      39 HOH   0.0000 
118 O      -17.3161     8.4956    14.3279 O.3    40 HOH   0.0000 
119 H1     -16.3561     8.4956    14.3279 H      40 HOH   0.0000 
120 H2     -17.6064     9.1427    14.9749 H      40 HOH   0.0000 
121 O       -8.2515    -0.1296    35.6962 O.3    41 HOH   0.0000 
122 H1      -7.2915    -0.1296    35.6962 H      41 HOH   0.0000 
123 H2      -8.5418     0.5175    36.3432 H      41 HOH   0.0000 
124 O       -2.0647    35.9675    34.4887 O.3    42 HOH   0.0000 
125 H1      -1.1047    35.9675    34.4887 H      42 HOH   0.0000 
126 H2      -2.3550    36.6145    35.1358 H      42 HOH   0.0000 
127 O       -6.4511    13.2807    21.7802 O.3    43 HOH   0.0000 
128 H1      -5.4911    13.2807    21.7802 H      43 HOH   0.0000 
129 H2      -6.7414    13.9278    22.4272 H      43 HOH   0.0000 
130 O       -7.8253    24.3537    46.8273 O.3    44 HOH   0.0000 
131 H1      -6.8653    24.3537    46.8273 H      44 HOH   0.0000 
132 H2      -8.1156    25.0008    47.4744 H      44 HOH   0.0000 
133 O       -0.7743    33.4992    35.3909 O.3    45 HOH   0.0000 
134 H1       0.1857    33.4992    35.3909 H      45 HOH   0.0000 
135 H2      -1.0646    34.1462    36.0380 H      45 HOH   0.0000 
136 O        6.5695    18.0318    35.8319 O.3    46 HOH  -0.8340 
137 H1       6.7395    17.2193    36.3085 H      46 HOH   0.4170 
138 H2       6.1810    17.7479    35.0044 H      46 HOH   0.4170 
139 O       -4.0799    -0.8841    15.9297 O.3    47 HOH   0.0000 
140 H1      -3.1199    -0.8841    15.9297 H      47 HOH   0.0000 
141 H2      -4.3701    -0.2370    16.5767 H      47 HOH   0.0000 
142 O       -4.2967    12.6155    24.0385 O.3    48 HOH   0.0000 
143 H1      -3.3367    12.6155    24.0385 H      48 HOH   0.0000 
144 H2      -4.5870    13.2625    24.6855 H      48 HOH   0.0000 
145 O      -10.9739    24.1082    16.5762 O.3    49 HOH   0.0000 
146 H1     -10.0139    24.1082    16.5762 H      49 HOH   0.0000 
147 H2     -11.2642    24.7552    17.2233 H      49 HOH   0.0000 
148 O      -14.1544    28.5828    23.6656 O.3    50 HOH   0.0000 
149 H1     -13.1944    28.5828    23.6656 H      50 HOH   0.0000 
150 H2     -14.4446    29.2299    24.3127 H      50 HOH   0.0000 
151 O       13.1421    36.1828    51.6513 O.3    51 HOH   0.0000 
152 H1      14.1021    36.1828    51.6513 H      51 HOH   0.0000 
153 H2      12.8518    36.8298    52.2984 H      51 HOH   0.0000 
154 O        5.1230    20.9135    34.1658 O.3    52 HOH  -0.8340 
155 H1       4.2936    20.8465    33.6926 H      52 HOH   0.4170 
156 H2       5.1883    21.8377    34.4061 H      52 HOH   0.4170 
157 O        0.1721    19.5224    15.6465 O.3    53 HOH   0.0000 
158 H1       1.1321    19.5224    15.6465 H      53 HOH   0.0000 
159 H2      -0.1182    20.1694    16.2935 H      53 HOH   0.0000 
160 O       -4.5196     5.5564    33.4860 O.3    54 HOH   0.0000 
161 H1      -3.5596     5.5564    33.4860 H      54 HOH   0.0000 
162 H2      -4.8098     6.2034    34.1330 H      54 HOH   0.0000 
163 O       -4.4447    14.6815    22.7528 O.3    55 HOH   0.0000 
164 H1      -3.4847    14.6815    22.7528 H      55 HOH   0.0000 
165 H2      -4.7350    15.3285    23.3999 H      55 HOH   0.0000 
166 O      -11.8902    25.3364    12.2927 O.3    56 HOH   0.0000 
167 H1     -10.9302    25.3364    12.2927 H      56 HOH   0.0000 
168 H2     -12.1805    25.9834    12.9397 H      56 HOH   0.0000 
169 O      -15.3053    27.6403    19.7034 O.3    57 HOH   0.0000 
170 H1     -14.3453    27.6403    19.7034 H      57 HOH   0.0000 
171 H2     -15.5956    28.2873    20.3505 H      57 HOH   0.0000 
172 O      -21.2974     7.3565    41.8212 O.3    58 HOH   0.0000 
173 H1     -20.3374     7.3565    41.8212 H      58 HOH   0.0000 
174 H2     -21.5877     8.0036    42.4683 H      58 HOH   0.0000 
175 O       -9.6423    20.6762    13.9050 O.3    59 HOH   0.0000 
176 H1      -8.6823    20.6762    13.9050 H      59 HOH   0.0000 
177 H2      -9.9326    21.3233    14.5521 H      59 HOH   0.0000 
178 O       -4.1156     5.0740    43.0948 O.3    60 HOH   0.0000 
179 H1      -3.1556     5.0740    43.0948 H      60 HOH   0.0000 
180 H2      -4.4059     5.7210    43.7418 H      60 HOH   0.0000 
181 O       -3.9838    33.4665    22.5976 O.3    61 HOH   0.0000 
182 H1      -3.0238    33.4665    22.5976 H      61 HOH   0.0000 
183 H2      -4.2741    34.1135    23.2446 H      61 HOH   0.0000 
184 O        2.3915     4.2299    32.8786 O.3    62 HOH   0.0000 
185 H1       3.3515     4.2299    32.8786 H      62 HOH   0.0000 
186 H2       2.1012     4.8770    33.5257 H      62 HOH   0.0000 
187 O        1.0031    27.1520    54.4387 O.3    63 HOH   0.0000 
188 H1       1.9631    27.1520    54.4387 H      63 HOH   0.0000 
189 H2       0.7128    27.7991    55.0857 H      63 HOH   0.0000 
190 O       -1.4451     9.2064    37.8449 O.3    64 HOH   0.0000 
191 H1      -0.4851     9.2064    37.8449 H      64 HOH   0.0000 
192 H2      -1.7354     9.8534    38.4919 H      64 HOH   0.0000 
193 O      -23.6541    21.9751    23.3341 O.3    65 HOH   0.0000 
194 H1     -22.6941    21.9751    23.3341 H      65 HOH   0.0000 
195 H2     -23.9444    22.6221    23.9812 H      65 HOH   0.0000 
196 O       -0.9515    22.1743    15.6914 O.3    66 HOH   0.0000 
197 H1       0.0085    22.1743    15.6914 H      66 HOH   0.0000 
198 H2      -1.2417    22.8214    16.3385 H      66 HOH   0.0000 
199 O       -0.1518     1.3884    18.4932 O.3    67 HOH   0.0000 
200 H1       0.8082     1.3884    18.4932 H      67 HOH   0.0000 
201 H2      -0.4421     2.0355    19.1403 H      67 HOH   0.0000 
202 O      -18.2471    26.9078    19.4740 O.3    68 HOH   0.0000 
203 H1     -17.2871    26.9078    19.4740 H      68 HOH   0.0000 
204 H2     -18.5373    27.5549    20.1210 H      68 HOH   0.0000 
205 O      -14.5310    17.4360     7.6559 O.3    69 HOH   0.0000 
206 H1     -13.5710    17.4360     7.6559 H      69 HOH   0.0000 
207 H2     -14.8213    18.0830     8.3030 H      69 HOH   0.0000 
208 O       -0.3947    23.0171    54.0264 O.3    70 HOH   0.0000 
209 H1       0.5653    23.0171    54.0264 H      70 HOH   0.0000 
210 H2      -0.6850    23.6642    54.6734 H      70 HOH   0.0000 
211 O        3.6377    37.2798    25.4317 O.3    71 HOH   0.0000 
212 H1       4.5977    37.2798    25.4317 H      71 HOH   0.0000 
213 H2       3.3475    37.9268    26.0788 H      71 HOH   0.0000 
214 O       -6.7881     1.0118    38.1180 O.3    72 HOH   0.0000 
215 H1      -5.8281     1.0118    38.1180 H      72 HOH   0.0000 
216 H2      -7.0783     1.6589    38.7650 H      72 HOH   0.0000 
217 O      -21.1554    16.0502    17.7812 O.3    73 HOH   0.0000 
218 H1     -20.1954    16.0502    17.7812 H      73 HOH   0.0000 
219 H2     -21.4456    16.6973    18.4283 H      73 HOH   0.0000 
220 O      -11.7270    23.0134    10.7240 O.3    74 HOH   0.0000 
221 H1     -10.7670    23.0134    10.7240 H      74 HOH   0.0000 
222 H2     -12.0172    23.6604    11.3711 H      74 HOH   0.0000 
223 O       -6.1007    20.3060    12.1564 O.3    75 HOH   0.0000 
224 H1      -5.1407    20.3060    12.1564 H      75 HOH   0.0000 
225 H2      -6.3910    20.9530    12.8035 H      75 HOH   0.0000 
226 O       -0.9859    25.9183    21.2845 O.3    76 HOH   0.0000 
227 H1      -0.0259    25.9183    21.2845 H      76 HOH   0.0000 
228 H2      -1.2762    26.5653    21.9316 H      76 HOH   0.0000 
229 O      -13.3751    23.9163    18.6610 O.3    77 HOH   0.0000 
230 H1     -12.4151    23.9163    18.6610 H      77 HOH   0.0000 
231 H2     -13.6654    24.5634    19.3081 H      77 HOH   0.0000 
232 O      -24.9821    15.6831    26.0647 O.3    78 HOH   0.0000 
233 H1     -24.0221    15.6831    26.0647 H      78 HOH   0.0000 
234 H2     -25.2724    16.3301    26.7118 H      78 HOH   0.0000 
235 O      -13.0925    21.0762    13.6218 O.3    79 HOH   0.0000 
236 H1     -12.1325    21.0762    13.6218 H      79 HOH   0.0000 
237 H2     -13.3827    21.7232    14.2689 H      79 HOH   0.0000 
238 O       -9.6868    11.0791    12.1991 O.3    80 HOH   0.0000 
239 H1      -8.7268    11.0791    12.1991 H      80 HOH   0.0000 
240 H2      -9.9770    11.7261    12.8462 H      80 HOH   0.0000 
241 O       -0.9213    27.7082    47.3376 O.3    81 HOH   0.0000 
242 H1       0.0387    27.7082    47.3376 H      81 HOH   0.0000 
243 H2      -1.2116    28.3552    47.9846 H      81 HOH   0.0000 
244 O      -11.6284     3.3336    41.0400 O.3    82 HOH   0.0000 
245 H1     -10.6684     3.3336    41.0400 H      82 HOH   0.0000 
246 H2     -11.9187     3.9806    41.6870 H      82 HOH   0.0000 
247 O       10.5102    18.2170    36.5348 O.3    83 HOH   0.0000 
248 H1      11.4702    18.2170    36.5348 H      83 HOH   0.0000 
249 H2      10.2199    18.8641    37.1818 H      83 HOH   0.0000 
250 O      -10.7553    27.0959    16.5264 O.3    84 HOH   0.0000 
251 H1      -9.7953    27.0959    16.5264 H      84 HOH   0.0000 
252 H2     -11.0456    27.7429    17.1735 H      84 HOH   0.0000 
253 O        2.0753    13.0337    22.2451 O.3    85 HOH   0.0000 
254 H1       3.0353    13.0337    22.2451 H      85 HOH   0.0000 
255 H2       1.7850    13.6807    22.8922 H      85 HOH   0.0000 
256 O      -31.4232    23.0055    33.7646 O.3    86 HOH   0.0000 
257 H1     -30.4632    23.0055    33.7646 H      86 HOH   0.0000 
258 H2     -31.7135    23.6526    34.4116 H      86 HOH   0.0000 
259 O       -4.1520     3.3496    31.2489 O.3    87 HOH   0.0000 
260 H1      -3.1920     3.3496    31.2489 H      87 HOH   0.0000 
261 H2      -4.4423     3.9967    31.8959 H      87 HOH   0.0000 
262 O      -13.7095    30.3243    21.7127 O.3    88 HOH   0.0000 
263 H1     -12.7495    30.3243    21.7127 H      88 HOH   0.0000 
264 H2     -13.9998    30.9714    22.3598 H      88 HOH   0.0000 
265 O      -27.0799    19.0012    27.5149 O.3    89 HOH   0.0000 
266 H1     -26.1199    19.0012    27.5149 H      89 HOH   0.0000 
267 H2     -27.3702    19.6482    28.1620 H      89 HOH   0.0000 
268 O       -1.8046    33.8848    18.1935 O.3    90 HOH   0.0000 
269 H1      -0.8446    33.8848    18.1935 H      90 HOH   0.0000 
270 H2      -2.0949    34.5319    18.8406 H      90 HOH   0.0000 
271 O       -7.7979     9.8790    10.7684 O.3    91 HOH   0.0000 
272 H1      -6.8379     9.8790    10.7684 H      91 HOH   0.0000 
273 H2      -8.0882    10.5261    11.4155 H      91 HOH   0.0000 
274 O       12.2815    15.7750    35.0294 O.3    92 HOH   0.0000 
275 H1      13.2415    15.7750    35.0294 H      92 HOH   0.0000 
276 H2      11.9912    16.4220    35.6765 H      92 HOH   0.0000 
277 O        1.8958    35.9759    43.1779 O.3    93 HOH   0.0000 
278 H1       2.8558    35.9759    43.1779 H      93 HOH   0.0000 
279 H2       1.6055    36.6230    43.8250 H      93 HOH   0.0000 
280 O      -13.1892    27.5598    15.6172 O.3    94 HOH   0.0000 
281 H1     -12.2292    27.5598    15.6172 H      94 HOH   0.0000 
282 H2     -13.4795    28.2069    16.2642 H      94 HOH   0.0000 
283 O       -4.9768     0.8359    36.0533 O.3    95 HOH   0.0000 
284 H1      -4.0168     0.8359    36.0533 H      95 HOH   0.0000 
285 H2      -5.2671     1.4830    36.7003 H      95 HOH   0.0000 
286 O       -1.5243     3.1299    31.9414 O.3    96 HOH   0.0000 
287 H1      -0.5643     3.1299    31.9414 H      96 HOH   0.0000 
288 H2      -1.8145     3.7770    32.5885 H      96 HOH   0.0000 
289 O      -10.2318    24.2206    53.1408 O.3    97 HOH   0.0000 
290 H1      -9.2718    24.2206    53.1408 H      97 HOH   0.0000 
291 H2     -10.5221    24.8676    53.7879 H      97 HOH   0.0000 
292 O       15.8058    14.5062    42.4060 O.3    98 HOH   0.0000 
293 H1      16.7658    14.5062    42.4060 H      98 HOH   0.0000 
294 H2      15.5155    15.1533    43.0531 H      98 HOH   0.0000 
295 O      -18.3323     7.8561    19.1934 O.3    99 HOH   0.0000 
296 H1     -17.3723     7.8561    19.1934 H      99 HOH   0.0000 
297 H2     -18.6226     8.5032    19.8405 H      99 HOH   0.0000 
298 O      -12.2205    -3.3152    27.4231 O.3   100 HOH   0.0000 
299 H1     -11.2605    -3.3152    27.4231 H     100 HOH   0.0000 
300 H2     -12.5107    -2.6682    28.0702 H     100 HOH   0.0000 
301 O      -16.1742    17.9910     7.6021 O.3   101 HOH   0.0000 
302 H1     -15.2142    17.9910     7.6021 H     101 HOH   0.0000 
303 H2     -16.4644    18.6381     8.2492 H     101 HOH   0.0000 
304 O       -5.8193    22.8007    13.5303 O.3   102 HOH   0.0000 
305 H1      -4.8593    22.8007    13.5303 H     102 HOH   0.0000 
306 H2      -6.1096    23.4477    14.1774 H     102 HOH   0.0000 
307 O      -18.7130     6.8438    16.7336 O.3   103 HOH   0.0000 
308 H1     -17.7530     6.8438    16.7336 H     103 HOH   0.0000 
309 H2     -19.0033     7.4909    17.3807 H     103 HOH   0.0000 
310 O       -3.0770     4.3201    35.4293 O.3   104 HOH   0.0000 
311 H1      -2.1170     4.3201    35.4293 H     104 HOH   0.0000 
312 H2      -3.3672     4.9671    36.0764 H     104 HOH   0.0000 
313 O       -4.8449     9.7137    33.5706 O.3   105 HOH   0.0000 
314 H1      -3.8849     9.7137    33.5706 H     105 HOH   0.0000 
315 H2      -5.1352    10.3607    34.2176 H     105 HOH   0.0000 
316 O        3.8309     0.4143    15.9815 O.3   106 HOH   0.0000 
317 H1       4.7909     0.4143    15.9815 H     106 HOH   0.0000 
318 H2       3.5407     1.0614    16.6285 H     106 HOH   0.0000 
319 O        2.4535    19.6955    55.0742 O.3   107 HOH   0.0000 
320 H1       3.4135    19.6955    55.0742 H     107 HOH   0.0000 
321 H2       2.1632    20.3425    55.7213 H     107 HOH   0.0000 
322 O        8.0317    12.6925    25.3526 O.3   108 HOH   0.0000 
323 H1       8.9917    12.6925    25.3526 H     108 HOH   0.0000 
324 H2       7.7414    13.3395    25.9997 H     108 HOH   0.0000 
325 O        3.7387    38.7192    32.8687 O.3   109 HOH   0.0000 
326 H1       4.6987    38.7192    32.8687 H     109 HOH   0.0000 
327 H2       3.4484    39.3663    33.5158 H     109 HOH   0.0000 
328 O      -22.8412     1.2275    25.4848 O.3   110 HOH   0.0000 
329 H1     -21.8812     1.2275    25.4848 H     110 HOH   0.0000 
330 H2     -23.1315     1.8746    26.1318 H     110 HOH   0.0000 
331 O       20.9932    36.3287    35.6822 O.3   111 HOH   0.0000 
332 H1      21.9532    36.3287    35.6822 H     111 HOH   0.0000 
333 H2      20.7029    36.9758    36.3292 H     111 HOH   0.0000 
334 O        8.8318    16.9020    31.6218 O.3   112 HOH  -0.8340 
335 H1       9.2996    16.9951    32.4517 H     112 HOH   0.4170 
336 H2       8.1204    16.2912    31.8144 H     112 HOH   0.4170 
337 O        0.4904    -3.7567    27.7034 O.3   113 HOH   0.0000 
338 H1       1.4504    -3.7567    27.7034 H     113 HOH   0.0000 
339 H2       0.2002    -3.1096    28.3504 H     113 HOH   0.0000 
340 O       -4.4139    25.3423    49.9738 O.3   114 HOH   0.0000 
341 H1      -3.4539    25.3423    49.9738 H     114 HOH   0.0000 
342 H2      -4.7042    25.9893    50.6208 H     114 HOH   0.0000 
343 O      -16.0325    -4.3741    25.0394 O.3   115 HOH   0.0000 
344 H1     -15.0725    -4.3741    25.0394 H     115 HOH   0.0000 
345 H2     -16.3228    -3.7270    25.6865 H     115 HOH   0.0000 
346 O      -29.1270    14.3096    32.7689 O.3   116 HOH   0.0000 
347 H1     -28.1670    14.3096    32.7689 H     116 HOH   0.0000 
348 H2     -29.4173    14.9566    33.4160 H     116 HOH   0.0000 
349 O        6.5136    12.5079    23.2196 O.3   117 HOH   0.0000 
350 H1       7.4736    12.5079    23.2196 H     117 HOH   0.0000 
351 H2       6.2233    13.1550    23.8666 H     117 HOH   0.0000 
352 O      -14.5199    25.7429    39.9749 O.3   118 HOH   0.0000 
353 H1     -13.5599    25.7429    39.9749 H     118 HOH   0.0000 
354 H2     -14.8102    26.3900    40.6219 H     118 HOH   0.0000 
355 O       -1.2991    27.9945    34.3229 O.3   119 HOH  -0.8340 
356 H1      -1.6395    27.8802    35.2103 H     119 HOH   0.4170 
357 H2      -1.0617    28.9205    34.2743 H     119 HOH   0.4170 
358 O      -23.2389     8.8433    43.6680 O.3   120 HOH   0.0000 
359 H1     -22.2789     8.8433    43.6680 H     120 HOH   0.0000 
360 H2     -23.5291     9.4904    44.3151 H     120 HOH   0.0000 
361 O       -1.4714    -2.2929    27.9232 O.3   121 HOH   0.0000 
362 H1      -0.5114    -2.2929    27.9232 H     121 HOH   0.0000 
363 H2      -1.7617    -1.6458    28.5703 H     121 HOH   0.0000 
364 O       14.0941    28.1918    48.6053 O.3   122 HOH   0.0000 
365 H1      15.0541    28.1918    48.6053 H     122 HOH   0.0000 
366 H2      13.8038    28.8388    49.2524 H     122 HOH   0.0000 
367 O       11.1911    15.9262    32.0506 O.3   123 HOH   0.0000 
368 H1      12.1511    15.9262    32.0506 H     123 HOH   0.0000 
369 H2      10.9009    16.5733    32.6977 H     123 HOH   0.0000 
370 O       11.1251    20.2153    33.2322 O.3   124 HOH  -0.8340 
371 H1      11.8978    19.6529    33.1782 H     124 HOH   0.4170 
372 H2      11.0308    20.5787    32.3517 H     124 HOH   0.4170 
373 O      -19.8109    27.9136    26.5346 O.3   125 HOH   0.0000 
374 H1     -18.8509    27.9136    26.5346 H     125 HOH   0.0000 
375 H2     -20.1012    28.5606    27.1816 H     125 HOH   0.0000 
376 O       19.8329    17.8143    27.2960 O.3   126 HOH   0.0000 
377 H1      20.7929    17.8143    27.2960 H     126 HOH   0.0000 
378 H2      19.5426    18.4613    27.9430 H     126 HOH   0.0000 
379 O       18.0024    13.1949    43.1532 O.3   127 HOH   0.0000 
380 H1      18.9624    13.1949    43.1532 H     127 HOH   0.0000 
381 H2      17.7121    13.8420    43.8003 H     127 HOH   0.0000 
382 O        4.0402    12.6608    19.3007 O.3   128 HOH   0.0000 
383 H1       5.0002    12.6608    19.3007 H     128 HOH   0.0000 
384 H2       3.7499    13.3079    19.9478 H     128 HOH   0.0000 
385 O       14.4761    36.1232    41.2518 O.3   129 HOH   0.0000 
386 H1      15.4361    36.1232    41.2518 H     129 HOH   0.0000 
387 H2      14.1858    36.7702    41.8988 H     129 HOH   0.0000 
388 O       10.1111    34.0628    33.7982 O.3   130 HOH   0.0000 
389 H1      11.0711    34.0628    33.7982 H     130 HOH   0.0000 
390 H2       9.8208    34.7099    34.4452 H     130 HOH   0.0000 
391 O       13.6150    39.0604    35.0215 O.3   131 HOH   0.0000 
392 H1      14.5750    39.0604    35.0215 H     131 HOH   0.0000 
393 H2      13.3248    39.7075    35.6686 H     131 HOH   0.0000 
394 O        1.1409    14.9157    42.0848 O.3   132 HOH  -0.8340 
395 H1       1.3769    14.9255    41.1572 H     132 HOH   0.4170 
396 H2       1.2068    15.8305    42.3589 H     132 HOH   0.4170 
397 O       17.6929    15.3868    45.3567 O.3   133 HOH   0.0000 
398 H1      18.6529    15.3868    45.3567 H     133 HOH   0.0000 
399 H2      17.4026    16.0338    46.0038 H     133 HOH   0.0000 
400 O      -28.5861    16.4836    26.8827 O.3   134 HOH   0.0000 
401 H1     -27.6261    16.4836    26.8827 H     134 HOH   0.0000 
402 H2     -28.8764    17.1306    27.5297 H     134 HOH   0.0000 
403 O      -26.7435     1.4427    27.6783 O.3   135 HOH   0.0000 
404 H1     -25.7835     1.4427    27.6783 H     135 HOH   0.0000 
405 H2     -27.0338     2.0897    28.3254 H     135 HOH   0.0000 
406 O      -16.7897     0.7730    44.9559 O.3   136 HOH   0.0000 
407 H1     -15.8297     0.7730    44.9559 H     136 HOH   0.0000 
408 H2     -17.0800     1.4200    45.6029 H     136 HOH   0.0000 
409 O      -15.3786     2.1818    47.3344 O.3   137 HOH   0.0000 
410 H1     -14.4186     2.1818    47.3344 H     137 HOH   0.0000 
411 H2     -15.6688     2.8288    47.9815 H     137 HOH   0.0000 
412 O      -12.6468    29.3030    19.2109 O.3   138 HOH   0.0000 
413 H1     -11.6868    29.3030    19.2109 H     138 HOH   0.0000 
414 H2     -12.9371    29.9500    19.8579 H     138 HOH   0.0000 
415 O       -1.2457     7.6979    35.5541 O.3   139 HOH   0.0000 
416 H1      -0.2857     7.6979    35.5541 H     139 HOH   0.0000 
417 H2      -1.5360     8.3449    36.2011 H     139 HOH   0.0000 
418 O        2.7440    16.6875    25.5508 O.3   140 HOH   0.0000 
419 H1       3.7040    16.6875    25.5508 H     140 HOH   0.0000 
420 H2       2.4537    17.3345    26.1979 H     140 HOH   0.0000 
421 O      -18.5619    21.5548    16.1710 O.3   141 HOH   0.0000 
422 H1     -17.6019    21.5548    16.1710 H     141 HOH   0.0000 
423 H2     -18.8522    22.2019    16.8180 H     141 HOH   0.0000 
424 O        8.4724    37.6942    47.1738 O.3   142 HOH   0.0000 
425 H1       9.4324    37.6942    47.1738 H     142 HOH   0.0000 
426 H2       8.1821    38.3412    47.8208 H     142 HOH   0.0000 
427 O        1.4163    -7.2976    23.9825 O.3   143 HOH   0.0000 
428 H1       2.3763    -7.2976    23.9825 H     143 HOH   0.0000 
429 H2       1.1261    -6.6505    24.6295 H     143 HOH   0.0000 
430 O      -15.2626    27.6215    36.8224 O.3   144 HOH   0.0000 
431 H1     -14.3026    27.6215    36.8224 H     144 HOH   0.0000 
432 H2     -15.5529    28.2685    37.4694 H     144 HOH   0.0000 
433 O       -1.0050    30.2833    35.4129 O.3   145 HOH   0.0000 
434 H1      -0.0450    30.2833    35.4129 H     145 HOH   0.0000 
435 H2      -1.2953    30.9303    36.0599 H     145 HOH   0.0000 
436 O       13.4040    17.3896    29.2663 O.3   146 HOH   0.0000 
437 H1      14.3640    17.3896    29.2663 H     146 HOH   0.0000 
438 H2      13.1137    18.0366    29.9134 H     146 HOH   0.0000 
439 O        3.9628    31.7953    25.8035 O.3   147 HOH   0.0000 
440 H1       4.9228    31.7953    25.8035 H     147 HOH   0.0000 
441 H2       3.6725    32.4424    26.4505 H     147 HOH   0.0000 
442 O        1.3160    32.0117    24.8571 O.3   148 HOH   0.0000 
443 H1       2.2760    32.0117    24.8571 H     148 HOH   0.0000 
444 H2       1.0257    32.6588    25.5042 H     148 HOH   0.0000 
445 O      -30.4928    11.2954    25.6528 O.3   149 HOH   0.0000 
446 H1     -29.5328    11.2954    25.6528 H     149 HOH   0.0000 
447 H2     -30.7830    11.9425    26.2998 H     149 HOH   0.0000 
448 O      -12.5167    23.6959    14.5136 O.3   150 HOH   0.0000 
449 H1     -11.5567    23.6959    14.5136 H     150 HOH   0.0000 
450 H2     -12.8069    24.3429    15.1607 H     150 HOH   0.0000 
451 O       -7.9914    18.6317    13.1610 O.3   151 HOH   0.0000 
452 H1      -7.0314    18.6317    13.1610 H     151 HOH   0.0000 
453 H2      -8.2817    19.2788    13.8081 H     151 HOH   0.0000 
454 O      -13.7702    35.1178    22.8072 O.3   152 HOH   0.0000 
455 H1     -12.8102    35.1178    22.8072 H     152 HOH   0.0000 
456 H2     -14.0605    35.7648    23.4543 H     152 HOH   0.0000 
457 O       -8.9974    18.0056    10.6052 O.3   153 HOH   0.0000 
458 H1      -8.0374    18.0056    10.6052 H     153 HOH   0.0000 
459 H2      -9.2877    18.6527    11.2523 H     153 HOH   0.0000 
460 O      -10.7938    16.6552     9.0582 O.3   154 HOH   0.0000 
461 H1      -9.8338    16.6552     9.0582 H     154 HOH   0.0000 
462 H2     -11.0841    17.3022     9.7052 H     154 HOH   0.0000 
463 O      -19.9160    19.7225    15.0527 O.3   155 HOH   0.0000 
464 H1     -18.9560    19.7225    15.0527 H     155 HOH   0.0000 
465 H2     -20.2062    20.3695    15.6998 H     155 HOH   0.0000 
466 O        9.3950    40.9842    40.7316 O.3   156 HOH   0.0000 
467 H1      10.3550    40.9842    40.7316 H     156 HOH   0.0000 
468 H2       9.1047    41.6312    41.3786 H     156 HOH   0.0000 
469 O      -20.8810    19.8161    12.6741 O.3   157 HOH   0.0000 
470 H1     -19.9210    19.8161    12.6741 H     157 HOH   0.0000 
471 H2     -21.1713    20.4631    13.3211 H     157 HOH   0.0000 
472 O      -20.5665     6.7132    36.4119 O.3   158 HOH   0.0000 
473 H1     -19.6065     6.7132    36.4119 H     158 HOH   0.0000 
474 H2     -20.8568     7.3603    37.0589 H     158 HOH   0.0000 
475 O      -16.5938    22.6855    15.3819 O.3   159 HOH   0.0000 
476 H1     -15.6338    22.6855    15.3819 H     159 HOH   0.0000 
477 H2     -16.8841    23.3326    16.0289 H     159 HOH   0.0000 
478 O       -0.9447     6.7132    37.9465 O.3   160 HOH   0.0000 
479 H1       0.0153     6.7132    37.9465 H     160 HOH   0.0000 
480 H2      -1.2350     7.3602    38.5935 H     160 HOH   0.0000 
481 O       10.5384     7.0408    24.7807 O.3   161 HOH   0.0000 
482 H1      11.4984     7.0408    24.7807 H     161 HOH   0.0000 
483 H2      10.2481     7.6879    25.4278 H     161 HOH   0.0000 
484 O      -13.4655    -0.7816    26.1643 O.3   162 HOH   0.0000 
485 H1     -12.5055    -0.7816    26.1643 H     162 HOH   0.0000 
486 H2     -13.7558    -0.1345    26.8114 H     162 HOH   0.0000 
487 O      -12.8721    11.1818    49.3966 O.3   163 HOH   0.0000 
488 H1     -11.9121    11.1818    49.3966 H     163 HOH   0.0000 
489 H2     -13.1624    11.8288    50.0436 H     163 HOH   0.0000 
490 O        5.9043     2.3443    16.2637 O.3   164 HOH   0.0000 
491 H1       6.8643     2.3443    16.2637 H     164 HOH   0.0000 
492 H2       5.6140     2.9914    16.9108 H     164 HOH   0.0000 
493 O        4.9109    15.4727    28.0919 O.3   165 HOH   0.0000 
494 H1       5.8709    15.4727    28.0919 H     165 HOH   0.0000 
495 H2       4.6206    16.1197    28.7389 H     165 HOH   0.0000 
496 O       -0.7131    13.5596    43.1428 O.3   166 HOH  -0.8340 
497 H1      -0.7502    12.8744    43.8102 H     166 HOH   0.4170 
498 H2       0.1056    14.0229    43.3198 H     166 HOH   0.4170 
499 O       -8.6969    10.1891    46.9418 O.3   167 HOH   0.0000 
500 H1      -7.7369    10.1891    46.9418 H     167 HOH   0.0000 
501 H2      -8.9872    10.8362    47.5888 H     167 HOH   0.0000 
502 O      -15.1561     5.4375    13.8116 O.3   168 HOH   0.0000 
503 H1     -14.1961     5.4375    13.8116 H     168 HOH   0.0000 
504 H2     -15.4464     6.0845    14.4586 H     168 HOH   0.0000 
505 O        8.2600    34.7187    52.7020 O.3   169 HOH   0.0000 
506 H1       9.2200    34.7187    52.7020 H     169 HOH   0.0000 
507 H2       7.9697    35.3657    53.3491 H     169 HOH   0.0000 
508 O       -9.3277    22.2155    11.4066 O.3   170 HOH   0.0000 
509 H1      -8.3677    22.2155    11.4066 H     170 HOH   0.0000 
510 H2      -9.6180    22.8626    12.0537 H     170 HOH   0.0000 
511 O       -1.3623     4.6519    12.1732 O.3   171 HOH   0.0000 
512 H1      -0.4023     4.6519    12.1732 H     171 HOH   0.0000 
513 H2      -1.6526     5.2990    12.8202 H     171 HOH   0.0000 
514 O        4.5984     5.2111    30.1614 O.3   172 HOH   0.0000 
515 H1       5.5584     5.2111    30.1614 H     172 HOH   0.0000 
516 H2       4.3081     5.8581    30.8084 H     172 HOH   0.0000 
517 O       19.7925    28.9299    25.4183 O.3   173 HOH   0.0000 
518 H1      20.7525    28.9299    25.4183 H     173 HOH   0.0000 
519 H2      19.5022    29.5770    26.0654 H     173 HOH   0.0000 
520 O      -20.9277     7.0829    18.1670 O.3   174 HOH   0.0000 
521 H1     -19.9677     7.0829    18.1670 H     174 HOH   0.0000 
522 H2     -21.2179     7.7299    18.8141 H     174 HOH   0.0000 
523 O      -14.9769    -4.8957    16.6741 O.3   175 HOH   0.0000 
524 H1     -14.0169    -4.8957    16.6741 H     175 HOH   0.0000 
525 H2     -15.2672    -4.2486    17.3212 H     175 HOH   0.0000 
526 O       -9.5128    15.4085    53.6075 O.3   176 HOH   0.0000 
527 H1      -8.5528    15.4085    53.6075 H     176 HOH   0.0000 
528 H2      -9.8031    16.0556    54.2545 H     176 HOH   0.0000 
529 O        1.1760    23.8061    27.1943 O.3   177 HOH  -0.8340 
530 H1       0.9698    24.0357    28.1004 H     177 HOH   0.4170 
531 H2       1.4845    22.9011    27.2403 H     177 HOH   0.4170 
532 O        4.0259    11.8077    23.8946 O.3   178 HOH   0.0000 
533 H1       4.9859    11.8077    23.8946 H     178 HOH   0.0000 
534 H2       3.7356    12.4547    24.5416 H     178 HOH   0.0000 
535 O       -9.9121    28.1962    18.7820 O.3   179 HOH   0.0000 
536 H1      -8.9521    28.1962    18.7820 H     179 HOH   0.0000 
537 H2     -10.2023    28.8432    19.4291 H     179 HOH   0.0000 
538 O        0.0398     3.4921    26.1280 O.3   180 HOH   0.0000 
539 H1       0.9998     3.4921    26.1280 H     180 HOH   0.0000 
540 H2      -0.2505     4.1392    26.7750 H     180 HOH   0.0000 
541 O      -15.6647    -0.1277    27.3679 O.3   181 HOH   0.0000 
542 H1     -14.7047    -0.1277    27.3679 H     181 HOH   0.0000 
543 H2     -15.9550     0.5194    28.0150 H     181 HOH   0.0000 
544 O        3.9858    38.1210    27.7171 O.3   182 HOH   0.0000 
545 H1       4.9458    38.1210    27.7171 H     182 HOH   0.0000 
546 H2       3.6955    38.7680    28.3642 H     182 HOH   0.0000 
547 O        0.2701    13.7768    23.4692 O.3   183 HOH   0.0000 
548 H1       1.2301    13.7768    23.4692 H     183 HOH   0.0000 
549 H2      -0.0202    14.4239    24.1163 H     183 HOH   0.0000 
550 O       -4.8640    30.1212    36.6338 O.3   184 HOH   0.0000 
551 H1      -3.9040    30.1212    36.6338 H     184 HOH   0.0000 
552 H2      -5.1542    30.7682    37.2809 H     184 HOH   0.0000 
553 O      -16.7923    23.1462    47.3030 O.3   185 HOH   0.0000 
554 H1     -15.8323    23.1462    47.3030 H     185 HOH   0.0000 
555 H2     -17.0826    23.7933    47.9501 H     185 HOH   0.0000 
556 O       -3.3912     6.0581    48.7402 O.3   186 HOH   0.0000 
557 H1      -2.4312     6.0581    48.7402 H     186 HOH   0.0000 
558 H2      -3.6815     6.7052    49.3872 H     186 HOH   0.0000 
559 O       12.2440    19.9859    36.5306 O.3   187 HOH   0.0000 
560 H1      13.2040    19.9859    36.5306 H     187 HOH   0.0000 
561 H2      11.9537    20.6329    37.1776 H     187 HOH   0.0000 
562 O      -19.0359     2.8640    41.7251 O.3   188 HOH   0.0000 
563 H1     -18.0759     2.8640    41.7251 H     188 HOH   0.0000 
564 H2     -19.3262     3.5110    42.3722 H     188 HOH   0.0000 
565 O        2.5732    21.9334    28.1677 O.3   189 HOH  -0.8340 
566 H1       2.2112    22.6063    28.7443 H     189 HOH   0.4170 
567 H2       2.1831    21.1163    28.4780 H     189 HOH   0.4170 
568 O      -19.8013    25.5126    16.0425 O.3   190 HOH   0.0000 
569 H1     -18.8413    25.5126    16.0425 H     190 HOH   0.0000 
570 H2     -20.0916    26.1596    16.6896 H     190 HOH   0.0000 
571 O        7.2275    16.1305    28.1450 O.3   191 HOH  -0.8340 
572 H1       6.4577    16.6131    27.8439 H     191 HOH   0.4170 
573 H2       7.0727    15.9904    29.0791 H     191 HOH   0.4170 
574 O       -5.1492     2.0882    42.0432 O.3   192 HOH   0.0000 
575 H1      -4.1892     2.0882    42.0432 H     192 HOH   0.0000 
576 H2      -5.4394     2.7353    42.6902 H     192 HOH   0.0000 
577 O       -9.8015    31.3861    41.6447 O.3   193 HOH   0.0000 
578 H1      -8.8415    31.3861    41.6447 H     193 HOH   0.0000 
579 H2     -10.0918    32.0331    42.2918 H     193 HOH   0.0000 
@<TRIPOS>BOND
  1   1   2  1   
  2   1   3  1   
  3   4   5  1   
  4   4   6  1   
  5   7   8  1   
  6   7   9  1   
  7  10  11  1   
  8  10  12  1   
  9  13  14  1   
 10  13  15  1   
 11  16  17  1   
 12  16  18  1   
 13  19  20  1   
 14  19  21  1   
 15  22  23  1   
 16  22  24  1   
 17  25  26  1   
 18  25  27  1   
 19  28  29  1   
 20  28  30  1   
 21  31  32  1   
 22  31  33  1   
 23  34  35  1   
 24  34  36  1   
 25  37  38  1   
 26  37  39  1   
 27  40  41  1   
 28  40  42  1   
 29  43  44  1   
 30  43  45  1   
 31  46  47  1   
 32  46  48  1   
 33  49  50  1   
 34  49  51  1   
 35  52  53  1   
 36  52  54  1   
 37  55  56  1   
 38  55  57  1   
 39  58  59  1   
 40  58  60  1   
 41  61  62  1   
 42  61  63  1   
 43  64  65  1   
 44  64  66  1   
 45  67  68  1   
 46  67  69  1   
 47  70  71  1   
 48  70  72  1   
 49  73  74  1   
 50  73  75  1   
 51  76  77  1   
 52  76  78  1   
 53  79  80  1   
 54  79  81  1   
 55  82  83  1   
 56  82  84  1   
 57  85  86  1   
 58  85  87  1   
 59  88  89  1   
 60  88  90  1   
 61  91  92  1   
 62  91  93  1   
 63  94  95  1   
 64  94  96  1   
 65  97  98  1   
 66  97  99  1   
 67 100 101  1   
 68 100 102  1   
 69 103 104  1   
 70 103 105  1   
 71 106 107  1   
 72 106 108  1   
 73 109 110  1   
 74 109 111  1   
 75 112 113  1   
 76 112 114  1   
 77 115 116  1   
 78 115 117  1   
 79 118 119  1   
 80 118 120  1   
 81 121 122  1   
 82 121 123  1   
 83 124 125  1   
 84 124 126  1   
 85 127 128  1   
 86 127 129  1   
 87 130 131  1   
 88 130 132  1   
 89 133 134  1   
 90 133 135  1   
 91 136 137  1   
 92 136 138  1   
 93 139 140  1   
 94 139 141  1   
 95 142 143  1   
 96 142 144  1   
 97 145 146  1   
 98 145 147  1   
 99 148 149  1   
100 148 150  1   
101 151 152  1   
102 151 153  1   
103 154 155  1   
104 154 156  1   
105 157 158  1   
106 157 159  1   
107 160 161  1   
108 160 162  1   
109 163 164  1   
110 163 165  1   
111 166 167  1   
112 166 168  1   
113 169 170  1   
114 169 171  1   
115 172 173  1   
116 172 174  1   
117 175 176  1   
118 175 177  1   
119 178 179  1   
120 178 180  1   
121 181 182  1   
122 181 183  1   
123 184 185  1   
124 184 186  1   
125 187 188  1   
126 187 189  1   
127 190 191  1   
128 190 192  1   
129 193 194  1   
130 193 195  1   
131 196 197  1   
132 196 198  1   
133 199 200  1   
134 199 201  1   
135 202 203  1   
136 202 204  1   
137 205 206  1   
138 205 207  1   
139 208 209  1   
140 208 210  1   
141 211 212  1   
142 211 213  1   
143 214 215  1   
144 214 216  1   
145 217 218  1   
146 217 219  1   
147 220 221  1   
148 220 222  1   
149 223 224  1   
150 223 225  1   
151 226 227  1   
152 226 228  1   
153 229 230  1   
154 229 231  1   
155 232 233  1   
156 232 234  1   
157 235 236  1   
158 235 237  1   
159 238 239  1   
160 238 240  1   
161 241 242  1   
162 241 243  1   
163 244 245  1   
164 244 246  1   
165 247 248  1   
166 247 249  1   
167 250 251  1   
168 250 252  1   
169 253 254  1   
170 253 255  1   
171 256 257  1   
172 256 258  1   
173 259 260  1   
174 259 261  1   
175 262 263  1   
176 262 264  1   
177 265 266  1   
178 265 267  1   
179 268 269  1   
180 268 270  1   
181 271 272  1   
182 271 273  1   
183 274 275  1   
184 274 276  1   
185 277 278  1   
186 277 279  1   
187 280 281  1   
188 280 282  1   
189 283 284  1   
190 283 285  1   
191 286 287  1   
192 286 288  1   
193 289 290  1   
194 289 291  1   
195 292 293  1   
196 292 294  1   
197 295 296  1   
198 295 297  1   
199 298 299  1   
200 298 300  1   
201 301 302  1   
202 301 303  1   
203 304 305  1   
204 304 306  1   
205 307 308  1   
206 307 309  1   
207 310 311  1   
208 310 312  1   
209 313 314  1   
210 313 315  1   
211 316 317  1   
212 316 318  1   
213 319 320  1   
214 319 321  1   
215 322 323  1   
216 322 324  1   
217 325 326  1   
218 325 327  1   
219 328 329  1   
220 328 330  1   
221 331 332  1   
222 331 333  1   
223 334 335  1   
224 334 336  1   
225 337 338  1   
226 337 339  1   
227 340 341  1   
228 340 342  1   
229 343 344  1   
230 343 345  1   
231 346 347  1   
232 346 348  1   
233 349 350  1   
234 349 351  1   
235 352 353  1   
236 352 354  1   
237 355 356  1   
238 355 357  1   
239 358 359  1   
240 358 360  1   
241 361 362  1   
242 361 363  1   
243 364 365  1   
244 364 366  1   
245 367 368  1   
246 367 369  1   
247 370 371  1   
248 370 372  1   
249 373 374  1   
250 373 375  1   
251 376 377  1   
252 376 378  1   
253 379 380  1   
254 379 381  1   
255 382 383  1   
256 382 384  1   
257 385 386  1   
258 385 387  1   
259 388 389  1   
260 388 390  1   
261 391 392  1   
262 391 393  1   
263 394 395  1   
264 394 396  1   
265 397 398  1   
266 397 399  1   
267 400 401  1   
268 400 402  1   
269 403 404  1   
270 403 405  1   
271 406 407  1   
272 406 408  1   
273 409 410  1   
274 409 411  1   
275 412 413  1   
276 412 414  1   
277 415 416  1   
278 415 417  1   
279 418 419  1   
280 418 420  1   
281 421 422  1   
282 421 423  1   
283 424 425  1   
284 424 426  1   
285 427 428  1   
286 427 429  1   
287 430 431  1   
288 430 432  1   
289 433 434  1   
290 433 435  1   
291 436 437  1   
292 436 438  1   
293 439 440  1   
294 439 441  1   
295 442 443  1   
296 442 444  1   
297 445 446  1   
298 445 447  1   
299 448 449  1   
300 448 450  1   
301 451 452  1   
302 451 453  1   
303 454 455  1   
304 454 456  1   
305 457 458  1   
306 457 459  1   
307 460 461  1   
308 460 462  1   
309 463 464  1   
310 463 465  1   
311 466 467  1   
312 466 468  1   
313 469 470  1   
314 469 471  1   
315 472 473  1   
316 472 474  1   
317 475 476  1   
318 475 477  1   
319 478 479  1   
320 478 480  1   
321 481 482  1   
322 481 483  1   
323 484 485  1   
324 484 486  1   
325 487 488  1   
326 487 489  1   
327 490 491  1   
328 490 492  1   
329 493 494  1   
330 493 495  1   
331 496 497  1   
332 496 498  1   
333 499 500  1   
334 499 501  1   
335 502 503  1   
336 502 504  1   
337 505 506  1   
338 505 507  1   
339 508 509  1   
340 508 510  1   
341 511 512  1   
342 511 513  1   
343 514 515  1   
344 514 516  1   
345 517 518  1   
346 517 519  1   
347 520 521  1   
348 520 522  1   
349 523 524  1   
350 523 525  1   
351 526 527  1   
352 526 528  1   
353 529 530  1   
354 529 531  1   
355 532 533  1   
356 532 534  1   
357 535 536  1   
358 535 537  1   
359 538 539  1   
360 538 540  1   
361 541 542  1   
362 541 543  1   
363 544 545  1   
364 544 546  1   
365 547 548  1   
366 547 549  1   
367 550 551  1   
368 550 552  1   
369 553 554  1   
370 553 555  1   
371 556 557  1   
372 556 558  1   
373 559 560  1   
374 559 561  1   
375 562 563  1   
376 562 564  1   
377 565 566  1   
378 565 567  1   
379 568 569  1   
380 568 570  1   
381 571 572  1   
382 571 573  1   
383 574 575  1   
384 574 576  1   
385 577 578  1   
386 577 579  1   
@<TRIPOS>SUBSTRUCTURE
  1 HOH   1 GROUP 4 B **** 0
  2 HOH   4 GROUP 4 B **** 0
  3 HOH   7 GROUP 4 B **** 0
  4 HOH  10 GROUP 4 B **** 0
  5 HOH  13 GROUP 4 B **** 0
  6 HOH  16 GROUP 4 B **** 0
  7 HOH  19 GROUP 4 B **** 0
  8 HOH  22 GROUP 4 B **** 0
  9 HOH  25 GROUP 4 B **** 0
 10 HOH  28 GROUP 4 B **** 0
 11 HOH  31 GROUP 4 B **** 0
 12 HOH  34 GROUP 4 B **** 0
 13 HOH  37 GROUP 4 B **** 0
 14 HOH  40 GROUP 4 B **** 0
 15 HOH  43 GROUP 4 B **** 0
 16 HOH  46 GROUP 4 B **** 0
 17 HOH  49 GROUP 4 B **** 0
 18 HOH  52 GROUP 4 B **** 0
 19 HOH  55 GROUP 4 B **** 0
 20 HOH  58 GROUP 4 B **** 0
 21 HOH  61 GROUP 4 B **** 0
 22 HOH  64 GROUP 4 B **** 0
 23 HOH  67 GROUP 4 B **** 0
 24 HOH  70 GROUP 4 B **** 0
 25 HOH  73 GROUP 4 B **** 0
 26 HOH  76 GROUP 4 B **** 0
 27 HOH  79 GROUP 4 B **** 0
 28 HOH  82 GROUP 4 B **** 0
 29 HOH  85 GROUP 4 B **** 0
 30 HOH  88 GROUP 4 B **** 0
 31 HOH  91 GROUP 4 B **** 0
 32 HOH  94 GROUP 4 B **** 0
 33 HOH  97 GROUP 4 B **** 0
 34 HOH 100 GROUP 4 B **** 0
 35 HOH 103 GROUP 4 B **** 0
 36 HOH 106 GROUP 4 B **** 0
 37 HOH 109 GROUP 4 B **** 0
 38 HOH 112 GROUP 4 B **** 0
 39 HOH 115 GROUP 4 B **** 0
 40 HOH 118 GROUP 4 B **** 0
 41 HOH 121 GROUP 4 B **** 0
 42 HOH 124 GROUP 4 B **** 0
 43 HOH 127 GROUP 4 B **** 0
 44 HOH 130 GROUP 4 B **** 0
 45 HOH 133 GROUP 4 B **** 0
 46 HOH 136 GROUP 4 B **** 0
 47 HOH 139 GROUP 4 B **** 0
 48 HOH 142 GROUP 4 B **** 0
 49 HOH 145 GROUP 4 B **** 0
 50 HOH 148 GROUP 4 B **** 0
 51 HOH 151 GROUP 4 B **** 0
 52 HOH 154 GROUP 4 B **** 0
 53 HOH 157 GROUP 4 B **** 0
 54 HOH 160 GROUP 4 B **** 0
 55 HOH 163 GROUP 4 B **** 0
 56 HOH 166 GROUP 4 B **** 0
 57 HOH 169 GROUP 4 B **** 0
 58 HOH 172 GROUP 4 B **** 0
 59 HOH 175 GROUP 4 B **** 0
 60 HOH 178 GROUP 4 B **** 0
 61 HOH 181 GROUP 4 B **** 0
 62 HOH 184 GROUP 4 B **** 0
 63 HOH 187 GROUP 4 B **** 0
 64 HOH 190 GROUP 4 B **** 0
 65 HOH 193 GROUP 4 B **** 0
 66 HOH 196 GROUP 4 B **** 0
 67 HOH 199 GROUP 4 B **** 0
 68 HOH 202 GROUP 4 B **** 0
 69 HOH 205 GROUP 4 B **** 0
 70 HOH 208 GROUP 4 B **** 0
 71 HOH 211 GROUP 4 B **** 0
 72 HOH 214 GROUP 4 B **** 0
 73 HOH 217 GROUP 4 B **** 0
 74 HOH 220 GROUP 4 B **** 0
 75 HOH 223 GROUP 4 B **** 0
 76 HOH 226 GROUP 4 B **** 0
 77 HOH 229 GROUP 4 B **** 0
 78 HOH 232 GROUP 4 B **** 0
 79 HOH 235 GROUP 4 B **** 0
 80 HOH 238 GROUP 4 B **** 0
 81 HOH 241 GROUP 4 B **** 0
 82 HOH 244 GROUP 4 B **** 0
 83 HOH 247 GROUP 4 B **** 0
 84 HOH 250 GROUP 4 B **** 0
 85 HOH 253 GROUP 4 B **** 0
 86 HOH 256 GROUP 4 B **** 0
 87 HOH 259 GROUP 4 B **** 0
 88 HOH 262 GROUP 4 B **** 0
 89 HOH 265 GROUP 4 B **** 0
 90 HOH 268 GROUP 4 B **** 0
 91 HOH 271 GROUP 4 B **** 0
 92 HOH 274 GROUP 4 B **** 0
 93 HOH 277 GROUP 4 B **** 0
 94 HOH 280 GROUP 4 B **** 0
 95 HOH 283 GROUP 4 B **** 0
 96 HOH 286 GROUP 4 B **** 0
 97 HOH 289 GROUP 4 B **** 0
 98 HOH 292 GROUP 4 B **** 0
 99 HOH 295 GROUP 4 B **** 0
100 HOH 298 GROUP 4 B **** 0
101 HOH 301 GROUP 4 B **** 0
102 HOH 304 GROUP 4 B **** 0
103 HOH 307 GROUP 4 B **** 0
104 HOH 310 GROUP 4 B **** 0
105 HOH 313 GROUP 4 B **** 0
106 HOH 316 GROUP 4 B **** 0
107 HOH 319 GROUP 4 B **** 0
108 HOH 322 GROUP 4 B **** 0
109 HOH 325 GROUP 4 B **** 0
110 HOH 328 GROUP 4 B **** 0
111 HOH 331 GROUP 4 B **** 0
112 HOH 334 GROUP 4 B **** 0
113 HOH 337 GROUP 4 B **** 0
114 HOH 340 GROUP 4 B **** 0
115 HOH 343 GROUP 4 B **** 0
116 HOH 346 GROUP 4 B **** 0
117 HOH 349 GROUP 4 B **** 0
118 HOH 352 GROUP 4 B **** 0
119 HOH 355 GROUP 4 B **** 0
120 HOH 358 GROUP 4 B **** 0
121 HOH 361 GROUP 4 B **** 0
122 HOH 364 GROUP 4 B **** 0
123 HOH 367 GROUP 4 B **** 0
124 HOH 370 GROUP 4 B **** 0
125 HOH 373 GROUP 4 B **** 0
126 HOH 376 GROUP 4 B **** 0
127 HOH 379 GROUP 4 B **** 0
128 HOH 382 GROUP 4 B **** 0
129 HOH 385 GROUP 4 B **** 0
130 HOH 388 GROUP 4 B **** 0
131 HOH 391 GROUP 4 B **** 0
132 HOH 394 GROUP 4 B **** 0
133 HOH 397 GROUP 4 B **** 0
134 HOH 400 GROUP 4 B **** 0
135 HOH 403 GROUP 4 B **** 0
136 HOH 406 GROUP 4 B **** 0
137 HOH 409 GROUP 4 B **** 0
138 HOH 412 GROUP 4 B **** 0
139 HOH 415 GROUP 4 B **** 0
140 HOH 418 GROUP 4 B **** 0
141 HOH 421 GROUP 4 B **** 0
142 HOH 424 GROUP 4 B **** 0
143 HOH 427 GROUP 4 B **** 0
144 HOH 430 GROUP 4 B **** 0
145 HOH 433 GROUP 4 B **** 0
146 HOH 436 GROUP 4 B **** 0
147 HOH 439 GROUP 4 B **** 0
148 HOH 442 GROUP 4 B **** 0
149 HOH 445 GROUP 4 B **** 0
150 HOH 448 GROUP 4 B **** 0
151 HOH 451 GROUP 4 B **** 0
152 HOH 454 GROUP 4 B **** 0
153 HOH 457 GROUP 4 B **** 0
154 HOH 460 GROUP 4 B **** 0
155 HOH 463 GROUP 4 B **** 0
156 HOH 466 GROUP 4 B **** 0
157 HOH 469 GROUP 4 B **** 0
158 HOH 472 GROUP 4 B **** 0
159 HOH 475 GROUP 4 B **** 0
160 HOH 478 GROUP 4 B **** 0
161 HOH 481 GROUP 4 B **** 0
162 HOH 484 GROUP 4 B **** 0
163 HOH 487 GROUP 4 B **** 0
164 HOH 490 GROUP 4 B **** 0
165 HOH 493 GROUP 4 B **** 0
166 HOH 496 GROUP 4 B **** 0
167 HOH 499 GROUP 4 B **** 0
168 HOH 502 GROUP 4 B **** 0
169 HOH 505 GROUP 4 B **** 0
170 HOH 508 GROUP 4 B **** 0
171 HOH 511 GROUP 4 B **** 0
172 HOH 514 GROUP 4 B **** 0
173 HOH 517 GROUP 4 B **** 0
174 HOH 520 GROUP 4 B **** 0
175 HOH 523 GROUP 4 B **** 0
176 HOH 526 GROUP 4 B **** 0
177 HOH 529 GROUP 4 B **** 0
178 HOH 532 GROUP 4 B **** 0
179 HOH 535 GROUP 4 B **** 0
180 HOH 538 GROUP 4 B **** 0
181 HOH 541 GROUP 4 B **** 0
182 HOH 544 GROUP 4 B **** 0
183 HOH 547 GROUP 4 B **** 0
184 HOH 550 GROUP 4 B **** 0
185 HOH 553 GROUP 4 B **** 0
186 HOH 556 GROUP 4 B **** 0
187 HOH 559 GROUP 4 B **** 0
188 HOH 562 GROUP 4 B **** 0
189 HOH 565 GROUP 4 B **** 0
190 HOH 568 GROUP 4 B **** 0
191 HOH 571 GROUP 4 B **** 0
192 HOH 574 GROUP 4 B **** 0
193 HOH 577 GROUP 4 B **** 0

# MOE 2012.10 (io_trps.svl 2012.10)
