@<TRIPOS>MOLECULE
4twp.A
46 49 1 0 0 
SMALL
USER_CHARGES


@<TRIPOS>ATOM
  1 O81      4.5643    18.0911    36.6428 O.2   1 AXI  -0.5700 
  2 C80      4.1827    16.9662    36.9013 C.2   1 AXI   0.5438 
  3 N82      5.1244    15.8975    36.9938 N.am  1 AXI  -0.7301 
  4 H82      4.8107    14.9613    37.2065 H     1 AXI   0.3700 
  5 C88      6.5329    16.1628    36.7810 C.3   1 AXI   0.0601 
  6 H881     6.6745    17.2218    36.5651 H     1 AXI   0.0800 
  7 H882     6.8914    15.5694    35.9399 H     1 AXI   0.0800 
  8 H883     7.0923    15.8969    37.6779 H     1 AXI   0.0800 
  9 C23      2.7337    16.6985    37.1172 C.ar  1 AXI   0.0862 
 10 C22      2.0925    15.7323    36.3521 C.ar  1 AXI  -0.1500 
 11 H22      2.6459    15.1811    35.6063 H     1 AXI   0.1500 
 12 C21      0.7439    15.4739    36.5437 C.ar  1 AXI  -0.1500 
 13 H21      0.2481    14.7220    35.9477 H     1 AXI   0.1500 
 14 C20      0.0272    16.1852    37.5063 C.ar  1 AXI  -0.1500 
 15 H20     -1.0232    15.9843    37.6574 H     1 AXI   0.1500 
 16 C18      2.0148    17.4162    38.0835 C.ar  1 AXI   0.1015 
 17 C19      0.6710    17.1570    38.2734 C.ar  1 AXI  -0.1500 
 18 H19      0.1168    17.7086    39.0184 H     1 AXI   0.1500 
 19 S24      2.8230    18.6612    39.0800 S.3   1 AXI  -0.2030 
 20 C07      1.9072    18.8016    40.6141 C.ar  1 AXI   0.1015 
 21 C08      1.7106    17.6610    41.4066 C.ar  1 AXI  -0.1500 
 22 H08      2.1148    16.7098    41.0932 H     1 AXI   0.1500 
 23 C09      0.9860    17.7556    42.6113 C.ar  1 AXI  -0.1500 
 24 H09      0.8334    16.8773    43.2210 H     1 AXI   0.1500 
 25 C12      1.3848    20.0273    41.0131 C.ar  1 AXI  -0.1500 
 26 H12      1.5319    20.9039    40.3997 H     1 AXI   0.1500 
 27 C11      0.6473    20.1247    42.2462 C.ar  1 AXI  -0.1516 
 28 N15      0.0262    21.1852    42.8846 N.pl3 1 AXI   0.2996 
 29 H15     -0.0012    22.1375    42.5493 H     1 AXI   0.2700 
 30 N14     -0.5476    20.7307    44.0500 N.2   1 AXI  -0.7068 
 31 C13     -0.3055    19.4117    44.1689 C.2   1 AXI   0.2428 
 32 C10      0.4562    19.0090    43.0230 C.ar  1 AXI   0.0000 
 33 C16     -0.7568    18.5271    45.2985 C.2   1 AXI  -0.1040 
 34 H16     -1.0974    18.9701    46.2227 H     1 AXI   0.1500 
 35 C17     -0.7394    17.1644    45.1644 C.2   1 AXI  -0.1784 
 36 H17     -0.2495    16.7047    44.3188 H     1 AXI   0.1500 
 37 C02     -1.4105    16.3158    46.2088 C.ar  1 AXI   0.3384 
 38 N03     -1.3296    14.9799    46.1300 N.ar  1 AXI  -0.6200 
 39 C04     -1.9146    14.1833    47.0411 C.ar  1 AXI   0.1600 
 40 H04     -1.8355    13.1095    46.9570 H     1 AXI   0.1500 
 41 C05     -2.6196    14.7517    48.0884 C.ar  1 AXI  -0.1500 
 42 H05     -3.0937    14.1200    48.8249 H     1 AXI   0.1500 
 43 C06     -2.7177    16.1306    48.1930 C.ar  1 AXI  -0.1500 
 44 H06     -3.2657    16.5786    49.0087 H     1 AXI   0.1500 
 45 C01     -2.1043    16.9284    47.2385 C.ar  1 AXI  -0.1500 
 46 H01     -2.1665    18.0050    47.2973 H     1 AXI   0.1500 
@<TRIPOS>BOND
  1   1   2  2   
  2   2   3  am  
  3   2   9  1   
  4   3   4  1   
  5   3   5  1   
  6   5   6  1   
  7   5   7  1   
  8   5   8  1   
  9   9  10  ar  
 10   9  16  ar  
 11  10  11  1   
 12  10  12  ar  
 13  12  13  1   
 14  12  14  ar  
 15  14  15  1   
 16  14  17  ar  
 17  16  17  ar  
 18  16  19  1   
 19  17  18  1   
 20  19  20  1   
 21  20  21  ar  
 22  20  25  ar  
 23  21  22  1   
 24  21  23  ar  
 25  23  24  1   
 26  23  32  ar  
 27  25  26  1   
 28  25  27  ar  
 29  27  28  1   
 30  27  32  ar  
 31  28  29  1   
 32  28  30  1   
 33  30  31  2   
 34  31  32  1   
 35  31  33  1   
 36  33  34  1   
 37  33  35  2   
 38  35  36  1   
 39  35  37  1   
 40  37  38  ar  
 41  37  45  ar  
 42  38  39  ar  
 43  39  40  1   
 44  39  41  ar  
 45  41  42  1   
 46  41  43  ar  
 47  43  44  1   
 48  43  45  ar  
 49  45  46  1   
@<TRIPOS>SUBSTRUCTURE
  1 AXI  21 GROUP 4 A **** 0

# MOE 2012.10 (io_trps.svl 2012.10)
