@<TRIPOS>MOLECULE
4twp.A
399 266 133 0 0 
SMALL
USER_CHARGES


@<TRIPOS>ATOM
  1 O      -29.8214     4.6289    29.6964 O.3     1 HOH   0.0000 
  2 H1     -28.8614     4.6289    29.6964 H       1 HOH   0.0000 
  3 H2     -30.1117     5.2760    30.3435 H       1 HOH   0.0000 
  4 O       -6.4494    24.4743    46.7448 O.3     2 HOH   0.0000 
  5 H1      -5.4894    24.4743    46.7448 H       2 HOH   0.0000 
  6 H2      -6.7397    25.1213    47.3918 H       2 HOH   0.0000 
  7 O      -18.3983     2.8740    28.3863 O.3     3 HOH   0.0000 
  8 H1     -17.4383     2.8740    28.3863 H       3 HOH   0.0000 
  9 H2     -18.6885     3.5211    29.0334 H       3 HOH   0.0000 
 10 O        5.8953    31.4066    57.4957 O.3     4 HOH   0.0000 
 11 H1       6.8553    31.4066    57.4957 H       4 HOH   0.0000 
 12 H2       5.6051    32.0536    58.1428 H       4 HOH   0.0000 
 13 O       -7.1205    13.1770    45.0973 O.3     5 HOH  -0.8340 
 14 H1      -7.6702    13.1534    44.3140 H       5 HOH   0.4170 
 15 H2      -7.2296    14.0639    45.4405 H       5 HOH   0.4170 
 16 O        0.6539    12.1495    35.2559 O.3     6 HOH  -0.8340 
 17 H1       1.2577    11.8913    34.5595 H       6 HOH   0.4170 
 18 H2       0.2181    12.9318    34.9177 H       6 HOH   0.4170 
 19 O       -3.0160    16.3811    21.9941 O.3     7 HOH   0.0000 
 20 H1      -2.0560    16.3811    21.9941 H       7 HOH   0.0000 
 21 H2      -3.3063    17.0281    22.6412 H       7 HOH   0.0000 
 22 O      -16.1745    13.4183    48.6188 O.3     8 HOH   0.0000 
 23 H1     -15.2145    13.4183    48.6188 H       8 HOH   0.0000 
 24 H2     -16.4648    14.0654    49.2658 H       8 HOH   0.0000 
 25 O      -13.7552    30.1105    28.0916 O.3     9 HOH   0.0000 
 26 H1     -12.7952    30.1105    28.0916 H       9 HOH   0.0000 
 27 H2     -14.0455    30.7575    28.7387 H       9 HOH   0.0000 
 28 O       -8.8608     6.8207    23.0519 O.3    10 HOH   0.0000 
 29 H1      -7.9008     6.8207    23.0519 H      10 HOH   0.0000 
 30 H2      -9.1510     7.4677    23.6989 H      10 HOH   0.0000 
 31 O       -3.6367    12.4165    27.2561 O.3    11 HOH   0.0000 
 32 H1      -2.6767    12.4165    27.2561 H      11 HOH   0.0000 
 33 H2      -3.9269    13.0635    27.9031 H      11 HOH   0.0000 
 34 O      -22.0609     8.1239    35.7132 O.3    12 HOH   0.0000 
 35 H1     -21.1009     8.1239    35.7132 H      12 HOH   0.0000 
 36 H2     -22.3511     8.7709    36.3602 H      12 HOH   0.0000 
 37 O       -4.4155    16.2073    15.3516 O.3    13 HOH   0.0000 
 38 H1      -3.4555    16.2073    15.3516 H      13 HOH   0.0000 
 39 H2      -4.7058    16.8543    15.9987 H      13 HOH   0.0000 
 40 O       -4.9026    12.6228    21.7089 O.3    14 HOH   0.0000 
 41 H1      -3.9426    12.6228    21.7089 H      14 HOH   0.0000 
 42 H2      -5.1929    13.2698    22.3559 H      14 HOH   0.0000 
 43 O      -14.8561    -0.4337    25.9603 O.3    15 HOH   0.0000 
 44 H1     -13.8961    -0.4337    25.9603 H      15 HOH   0.0000 
 45 H2     -15.1464     0.2133    26.6073 H      15 HOH   0.0000 
 46 O        2.0480    16.8186    54.2453 O.3    16 HOH   0.0000 
 47 H1       3.0080    16.8186    54.2453 H      16 HOH   0.0000 
 48 H2       1.7577    17.4656    54.8923 H      16 HOH   0.0000 
 49 O       -6.6519     6.0517    21.6058 O.3    17 HOH   0.0000 
 50 H1      -5.6919     6.0517    21.6058 H      17 HOH   0.0000 
 51 H2      -6.9421     6.6988    22.2529 H      17 HOH   0.0000 
 52 O       -7.4159     0.0627    30.7050 O.3    18 HOH   0.0000 
 53 H1      -6.4559     0.0627    30.7050 H      18 HOH   0.0000 
 54 H2      -7.7062     0.7097    31.3521 H      18 HOH   0.0000 
 55 O       -5.5609     3.1726    32.7522 O.3    19 HOH   0.0000 
 56 H1      -4.6009     3.1726    32.7522 H      19 HOH   0.0000 
 57 H2      -5.8511     3.8197    33.3993 H      19 HOH   0.0000 
 58 O       17.5975    31.1550    41.5437 O.3    20 HOH   0.0000 
 59 H1      18.5575    31.1550    41.5437 H      20 HOH   0.0000 
 60 H2      17.3072    31.8021    42.1908 H      20 HOH   0.0000 
 61 O      -15.9014     6.3818    46.0400 O.3    21 HOH   0.0000 
 62 H1     -14.9414     6.3818    46.0400 H      21 HOH   0.0000 
 63 H2     -16.1917     7.0289    46.6870 H      21 HOH   0.0000 
 64 O      -15.2484    25.5550    43.1020 O.3    22 HOH   0.0000 
 65 H1     -14.2884    25.5550    43.1020 H      22 HOH   0.0000 
 66 H2     -15.5387    26.2021    43.7491 H      22 HOH   0.0000 
 67 O       -2.8142    29.7100    35.6031 O.3    23 HOH   0.0000 
 68 H1      -1.8542    29.7100    35.6031 H      23 HOH   0.0000 
 69 H2      -3.1045    30.3570    36.2501 H      23 HOH   0.0000 
 70 O      -24.3896     7.3961    45.8343 O.3    24 HOH   0.0000 
 71 H1     -23.4296     7.3961    45.8343 H      24 HOH   0.0000 
 72 H2     -24.6799     8.0431    46.4813 H      24 HOH   0.0000 
 73 O        5.5140    12.7843    43.2643 O.3    25 HOH   0.0000 
 74 H1       6.4740    12.7843    43.2643 H      25 HOH   0.0000 
 75 H2       5.2237    13.4314    43.9113 H      25 HOH   0.0000 
 76 O      -13.3448    19.7511    46.4482 O.3    26 HOH   0.0000 
 77 H1     -12.3848    19.7511    46.4482 H      26 HOH   0.0000 
 78 H2     -13.6351    20.3981    47.0952 H      26 HOH   0.0000 
 79 O      -13.6265    29.0766    35.3496 O.3    27 HOH   0.0000 
 80 H1     -12.6665    29.0766    35.3496 H      27 HOH   0.0000 
 81 H2     -13.9168    29.7237    35.9966 H      27 HOH   0.0000 
 82 O      -17.3754     7.5123    15.5815 O.3    28 HOH   0.0000 
 83 H1     -16.4154     7.5123    15.5815 H      28 HOH   0.0000 
 84 H2     -17.6657     8.1593    16.2285 H      28 HOH   0.0000 
 85 O      -19.1520    29.8545    26.6252 O.3    29 HOH   0.0000 
 86 H1     -18.1920    29.8545    26.6252 H      29 HOH   0.0000 
 87 H2     -19.4423    30.5016    27.2722 H      29 HOH   0.0000 
 88 O        1.9774    18.8596    28.9102 O.3    30 HOH   0.0000 
 89 H1       2.9374    18.8596    28.9102 H      30 HOH   0.0000 
 90 H2       1.6871    19.5067    29.5573 H      30 HOH   0.0000 
 91 O        1.8313    21.0821    36.6212 O.3    31 HOH  -0.8340 
 92 H1       2.3052    21.8987    36.4642 H      31 HOH   0.4170 
 93 H2       2.5014    20.4706    36.9266 H      31 HOH   0.4170 
 94 O      -10.5456    23.6890    17.6398 O.3    32 HOH   0.0000 
 95 H1      -9.5856    23.6890    17.6398 H      32 HOH   0.0000 
 96 H2     -10.8359    24.3360    18.2869 H      32 HOH   0.0000 
 97 O       10.5208    32.5072    52.4213 O.3    33 HOH   0.0000 
 98 H1      11.4808    32.5072    52.4213 H      33 HOH   0.0000 
 99 H2      10.2306    33.1542    53.0684 H      33 HOH   0.0000 
100 O        3.1191    24.2496    15.0907 O.3    34 HOH   0.0000 
101 H1       4.0791    24.2496    15.0907 H      34 HOH   0.0000 
102 H2       2.8288    24.8966    15.7377 H      34 HOH   0.0000 
103 O       -4.3248    -1.7006    17.3552 O.3    35 HOH   0.0000 
104 H1      -3.3648    -1.7006    17.3552 H      35 HOH   0.0000 
105 H2      -4.6151    -1.0535    18.0023 H      35 HOH   0.0000 
106 O       -6.0726     9.5953    34.1489 O.3    36 HOH   0.0000 
107 H1      -5.1126     9.5953    34.1489 H      36 HOH   0.0000 
108 H2      -6.3629    10.2424    34.7959 H      36 HOH   0.0000 
109 O       -3.4302    -0.0582    19.6732 O.3    37 HOH   0.0000 
110 H1      -2.4702    -0.0582    19.6732 H      37 HOH   0.0000 
111 H2      -3.7205     0.5888    20.3203 H      37 HOH   0.0000 
112 O      -17.4043    28.7709    25.0998 O.3    38 HOH   0.0000 
113 H1     -16.4443    28.7709    25.0998 H      38 HOH   0.0000 
114 H2     -17.6945    29.4180    25.7469 H      38 HOH   0.0000 
115 O       -3.3679    35.2886    29.5591 O.3    39 HOH   0.0000 
116 H1      -2.4079    35.2886    29.5591 H      39 HOH   0.0000 
117 H2      -3.6582    35.9356    30.2062 H      39 HOH   0.0000 
118 O      -22.6543    18.7345    46.2074 O.3    40 HOH   0.0000 
119 H1     -21.6943    18.7345    46.2074 H      40 HOH   0.0000 
120 H2     -22.9446    19.3815    46.8545 H      40 HOH   0.0000 
121 O      -24.7390    10.6964    43.2696 O.3    41 HOH   0.0000 
122 H1     -23.7790    10.6964    43.2696 H      41 HOH   0.0000 
123 H2     -25.0293    11.3435    43.9166 H      41 HOH   0.0000 
124 O      -17.2420     8.8051    17.9645 O.3    42 HOH   0.0000 
125 H1     -16.2820     8.8051    17.9645 H      42 HOH   0.0000 
126 H2     -17.5323     9.4521    18.6115 H      42 HOH   0.0000 
127 O      -14.8599    11.6916    11.1525 O.3    43 HOH   0.0000 
128 H1     -13.8999    11.6916    11.1525 H      43 HOH   0.0000 
129 H2     -15.1502    12.3386    11.7996 H      43 HOH   0.0000 
130 O       -9.4487    -9.0136    28.6835 O.3    44 HOH   0.0000 
131 H1      -8.4887    -9.0136    28.6835 H      44 HOH   0.0000 
132 H2      -9.7389    -8.3665    29.3305 H      44 HOH   0.0000 
133 O      -22.2573    12.9787    18.6786 O.3    45 HOH   0.0000 
134 H1     -21.2973    12.9787    18.6786 H      45 HOH   0.0000 
135 H2     -22.5476    13.6258    19.3257 H      45 HOH   0.0000 
136 O        9.5728    17.2840    17.8742 O.3    46 HOH   0.0000 
137 H1      10.5328    17.2840    17.8742 H      46 HOH   0.0000 
138 H2       9.2825    17.9310    18.5213 H      46 HOH   0.0000 
139 O      -11.7689    30.2410    28.4136 O.3    47 HOH   0.0000 
140 H1     -10.8089    30.2410    28.4136 H      47 HOH   0.0000 
141 H2     -12.0591    30.8880    29.0607 H      47 HOH   0.0000 
142 O       -7.4474    10.4410    12.4565 O.3    48 HOH   0.0000 
143 H1      -6.4874    10.4410    12.4565 H      48 HOH   0.0000 
144 H2      -7.7377    11.0881    13.1035 H      48 HOH   0.0000 
145 O       -8.7192     6.2970    34.1001 O.3    49 HOH   0.0000 
146 H1      -7.7592     6.2970    34.1001 H      49 HOH   0.0000 
147 H2      -9.0094     6.9440    34.7471 H      49 HOH   0.0000 
148 O       -4.8921    29.3660    38.2734 O.3    50 HOH   0.0000 
149 H1      -3.9321    29.3660    38.2734 H      50 HOH   0.0000 
150 H2      -5.1824    30.0131    38.9204 H      50 HOH   0.0000 
151 O        1.3298    29.1171    35.2118 O.3    51 HOH   0.0000 
152 H1       2.2898    29.1171    35.2118 H      51 HOH   0.0000 
153 H2       1.0396    29.7641    35.8588 H      51 HOH   0.0000 
154 O       -4.3318    23.0269    16.0329 O.3    52 HOH   0.0000 
155 H1      -3.3718    23.0269    16.0329 H      52 HOH   0.0000 
156 H2      -4.6221    23.6740    16.6800 H      52 HOH   0.0000 
157 O      -23.7226    14.8394    35.2479 O.3    53 HOH   0.0000 
158 H1     -22.7626    14.8394    35.2479 H      53 HOH   0.0000 
159 H2     -24.0129    15.4865    35.8950 H      53 HOH   0.0000 
160 O        4.1095    19.6437    12.4040 O.3    54 HOH   0.0000 
161 H1       5.0695    19.6437    12.4040 H      54 HOH   0.0000 
162 H2       3.8192    20.2907    13.0511 H      54 HOH   0.0000 
163 O       -9.1913    29.3934    40.2685 O.3    55 HOH   0.0000 
164 H1      -8.2313    29.3934    40.2685 H      55 HOH   0.0000 
165 H2      -9.4816    30.0404    40.9155 H      55 HOH   0.0000 
166 O      -13.9184     5.4369    22.7429 O.3    56 HOH   0.0000 
167 H1     -12.9584     5.4369    22.7429 H      56 HOH   0.0000 
168 H2     -14.2087     6.0839    23.3899 H      56 HOH   0.0000 
169 O      -19.3594     3.2173    16.9603 O.3    57 HOH   0.0000 
170 H1     -18.3994     3.2173    16.9603 H      57 HOH   0.0000 
171 H2     -19.6497     3.8643    17.6074 H      57 HOH   0.0000 
172 O      -13.6439    27.3149    38.7438 O.3    58 HOH   0.0000 
173 H1     -12.6839    27.3149    38.7438 H      58 HOH   0.0000 
174 H2     -13.9341    27.9620    39.3909 H      58 HOH   0.0000 
175 O      -26.5353    11.4614    36.2249 O.3    59 HOH   0.0000 
176 H1     -25.5753    11.4614    36.2249 H      59 HOH   0.0000 
177 H2     -26.8255    12.1084    36.8719 H      59 HOH   0.0000 
178 O        0.1049    27.2841    46.9629 O.3    60 HOH   0.0000 
179 H1       1.0649    27.2841    46.9629 H      60 HOH   0.0000 
180 H2      -0.1853    27.9312    47.6100 H      60 HOH   0.0000 
181 O      -17.9235     3.6298    38.8072 O.3    61 HOH   0.0000 
182 H1     -16.9635     3.6298    38.8072 H      61 HOH   0.0000 
183 H2     -18.2138     4.2769    39.4542 H      61 HOH   0.0000 
184 O       -0.8249    35.5864    29.5374 O.3    62 HOH   0.0000 
185 H1       0.1351    35.5864    29.5374 H      62 HOH   0.0000 
186 H2      -1.1152    36.2334    30.1845 H      62 HOH   0.0000 
187 O      -13.7425     5.5851    13.3216 O.3    63 HOH   0.0000 
188 H1     -12.7825     5.5851    13.3216 H      63 HOH   0.0000 
189 H2     -14.0328     6.2321    13.9686 H      63 HOH   0.0000 
190 O        2.3677    12.7417    33.6266 O.3    64 HOH  -0.8340 
191 H1       2.3020    13.6343    33.2872 H      64 HOH   0.4170 
192 H2       2.6742    12.8493    34.5270 H      64 HOH   0.4170 
193 O        1.5699    32.5698    34.5767 O.3    65 HOH   0.0000 
194 H1       2.5299    32.5698    34.5767 H      65 HOH   0.0000 
195 H2       1.2796    33.2168    35.2238 H      65 HOH   0.0000 
196 O      -12.3795    12.0072    47.0982 O.3    66 HOH   0.0000 
197 H1     -11.4195    12.0072    47.0982 H      66 HOH   0.0000 
198 H2     -12.6698    12.6543    47.7452 H      66 HOH   0.0000 
199 O      -16.4789     6.7477    43.3933 O.3    67 HOH   0.0000 
200 H1     -15.5189     6.7477    43.3933 H      67 HOH   0.0000 
201 H2     -16.7692     7.3948    44.0403 H      67 HOH   0.0000 
202 O      -14.7318    -2.7501    27.4009 O.3    68 HOH   0.0000 
203 H1     -13.7718    -2.7501    27.4009 H      68 HOH   0.0000 
204 H2     -15.0221    -2.1030    28.0479 H      68 HOH   0.0000 
205 O       15.1954    26.4585    53.8380 O.3    69 HOH   0.0000 
206 H1      16.1554    26.4585    53.8380 H      69 HOH   0.0000 
207 H2      14.9052    27.1056    54.4850 H      69 HOH   0.0000 
208 O      -20.7741    20.5404    46.7122 O.3    70 HOH   0.0000 
209 H1     -19.8141    20.5404    46.7122 H      70 HOH   0.0000 
210 H2     -21.0643    21.1874    47.3592 H      70 HOH   0.0000 
211 O       -4.4847     7.1869    34.2904 O.3    71 HOH   0.0000 
212 H1      -3.5247     7.1869    34.2904 H      71 HOH   0.0000 
213 H2      -4.7750     7.8340    34.9374 H      71 HOH   0.0000 
214 O       15.2771    25.0891    49.2648 O.3    72 HOH   0.0000 
215 H1      16.2371    25.0891    49.2648 H      72 HOH   0.0000 
216 H2      14.9869    25.7362    49.9118 H      72 HOH   0.0000 
217 O      -28.6444    14.9095    28.3251 O.3    73 HOH   0.0000 
218 H1     -27.6844    14.9095    28.3251 H      73 HOH   0.0000 
219 H2     -28.9347    15.5566    28.9721 H      73 HOH   0.0000 
220 O      -14.1730     3.8360    10.4773 O.3    74 HOH   0.0000 
221 H1     -13.2130     3.8360    10.4773 H      74 HOH   0.0000 
222 H2     -14.4633     4.4831    11.1243 H      74 HOH   0.0000 
223 O       -0.7676    28.0244    34.1517 O.3    75 HOH   0.0000 
224 H1       0.1924    28.0244    34.1517 H      75 HOH   0.0000 
225 H2      -1.0579    28.6715    34.7988 H      75 HOH   0.0000 
226 O      -20.6799    12.9136    16.5529 O.3    76 HOH   0.0000 
227 H1     -19.7199    12.9136    16.5529 H      76 HOH   0.0000 
228 H2     -20.9702    13.5606    17.1999 H      76 HOH   0.0000 
229 O      -12.8091    22.0897    12.0855 O.3    77 HOH   0.0000 
230 H1     -11.8491    22.0897    12.0855 H      77 HOH   0.0000 
231 H2     -13.0994    22.7367    12.7325 H      77 HOH   0.0000 
232 O      -18.5944    13.4843    32.1021 O.3    78 HOH   0.0000 
233 H1     -17.6344    13.4843    32.1021 H      78 HOH   0.0000 
234 H2     -18.8847    14.1314    32.7492 H      78 HOH   0.0000 
235 O       -0.7642    11.6129    38.2608 O.3    79 HOH  -0.8340 
236 H1      -1.5385    12.0681    37.9299 H      79 HOH   0.4170 
237 H2      -0.1214    11.6891    37.5556 H      79 HOH   0.4170 
238 O      -15.1612     9.6526    50.9237 O.3    80 HOH   0.0000 
239 H1     -14.2012     9.6526    50.9237 H      80 HOH   0.0000 
240 H2     -15.4515    10.2996    51.5707 H      80 HOH   0.0000 
241 O      -15.5338     8.4973    13.2433 O.3    81 HOH   0.0000 
242 H1     -14.5738     8.4973    13.2433 H      81 HOH   0.0000 
243 H2     -15.8241     9.1443    13.8904 H      81 HOH   0.0000 
244 O        3.6642    21.7471    35.0578 O.3    82 HOH  -0.8340 
245 H1       4.1659    22.5428    35.2351 H      82 HOH   0.4170 
246 H2       4.3117    21.1233    34.7294 H      82 HOH   0.4170 
247 O      -19.5034    19.8790    49.0392 O.3    83 HOH   0.0000 
248 H1     -18.5434    19.8790    49.0392 H      83 HOH   0.0000 
249 H2     -19.7936    20.5261    49.6863 H      83 HOH   0.0000 
250 O      -23.7222    11.3276    39.2191 O.3    84 HOH   0.0000 
251 H1     -22.7622    11.3276    39.2191 H      84 HOH   0.0000 
252 H2     -24.0124    11.9746    39.8662 H      84 HOH   0.0000 
253 O       -4.2084    12.5854    44.6922 O.3    85 HOH  -0.8340 
254 H1      -4.5765    11.7941    44.2989 H      85 HOH   0.4170 
255 H2      -4.8458    12.8406    45.3592 H      85 HOH   0.4170 
256 O      -20.4293     2.8846    33.4056 O.3    86 HOH   0.0000 
257 H1     -19.4693     2.8846    33.4056 H      86 HOH   0.0000 
258 H2     -20.7196     3.5316    34.0527 H      86 HOH   0.0000 
259 O      -28.1559    19.7715    32.8161 O.3    87 HOH   0.0000 
260 H1     -27.1959    19.7715    32.8161 H      87 HOH   0.0000 
261 H2     -28.4462    20.4185    33.4631 H      87 HOH   0.0000 
262 O      -10.6709     0.8035    36.4432 O.3    88 HOH   0.0000 
263 H1      -9.7109     0.8035    36.4432 H      88 HOH   0.0000 
264 H2     -10.9612     1.4505    37.0903 H      88 HOH   0.0000 
265 O      -19.3581    15.9370    32.9229 O.3    89 HOH   0.0000 
266 H1     -18.3981    15.9370    32.9229 H      89 HOH   0.0000 
267 H2     -19.6484    16.5840    33.5700 H      89 HOH   0.0000 
268 O      -23.4531    12.9239    52.3480 O.3    90 HOH   0.0000 
269 H1     -22.4931    12.9239    52.3480 H      90 HOH   0.0000 
270 H2     -23.7433    13.5709    52.9950 H      90 HOH   0.0000 
271 O       -4.6200     7.8765    47.2759 O.3    91 HOH   0.0000 
272 H1      -3.6600     7.8765    47.2759 H      91 HOH   0.0000 
273 H2      -4.9103     8.5235    47.9229 H      91 HOH   0.0000 
274 O       -5.6398     3.5257    36.5207 O.3    92 HOH   0.0000 
275 H1      -4.6798     3.5257    36.5207 H      92 HOH   0.0000 
276 H2      -5.9301     4.1728    37.1677 H      92 HOH   0.0000 
277 O      -19.8599     8.7962    15.1693 O.3    93 HOH   0.0000 
278 H1     -18.8999     8.7962    15.1693 H      93 HOH   0.0000 
279 H2     -20.1502     9.4432    15.8164 H      93 HOH   0.0000 
280 O        3.0947    16.2702    29.9471 O.3    94 HOH   0.0000 
281 H1       4.0547    16.2702    29.9471 H      94 HOH   0.0000 
282 H2       2.8044    16.9172    30.5941 H      94 HOH   0.0000 
283 O      -17.0516     0.7623    27.0240 O.3    95 HOH   0.0000 
284 H1     -16.0916     0.7623    27.0240 H      95 HOH   0.0000 
285 H2     -17.3418     1.4093    27.6710 H      95 HOH   0.0000 
286 O      -22.3618    24.4358    21.9286 O.3    96 HOH   0.0000 
287 H1     -21.4018    24.4358    21.9286 H      96 HOH   0.0000 
288 H2     -22.6521    25.0828    22.5757 H      96 HOH   0.0000 
289 O       -2.9161     3.9246    27.7311 O.3    97 HOH   0.0000 
290 H1      -1.9561     3.9246    27.7311 H      97 HOH   0.0000 
291 H2      -3.2064     4.5717    28.3781 H      97 HOH   0.0000 
292 O      -11.8462    31.7800    30.1288 O.3    98 HOH   0.0000 
293 H1     -10.8862    31.7800    30.1288 H      98 HOH   0.0000 
294 H2     -12.1365    32.4270    30.7759 H      98 HOH   0.0000 
295 O      -26.8494    16.5811    40.9965 O.3    99 HOH   0.0000 
296 H1     -25.8894    16.5811    40.9965 H      99 HOH   0.0000 
297 H2     -27.1397    17.2281    41.6435 H      99 HOH   0.0000 
298 O      -23.0691     6.8152    40.4755 O.3   100 HOH   0.0000 
299 H1     -22.1091     6.8152    40.4755 H     100 HOH   0.0000 
300 H2     -23.3594     7.4622    41.1226 H     100 HOH   0.0000 
301 O      -23.5500     3.8071    23.7011 O.3   101 HOH   0.0000 
302 H1     -22.5900     3.8071    23.7011 H     101 HOH   0.0000 
303 H2     -23.8402     4.4542    24.3482 H     101 HOH   0.0000 
304 O      -18.7756    13.6561    52.4784 O.3   102 HOH   0.0000 
305 H1     -17.8156    13.6561    52.4784 H     102 HOH   0.0000 
306 H2     -19.0659    14.3031    53.1255 H     102 HOH   0.0000 
307 O       -5.9648    33.0444    36.4782 O.3   103 HOH   0.0000 
308 H1      -5.0048    33.0444    36.4782 H     103 HOH   0.0000 
309 H2      -6.2551    33.6914    37.1253 H     103 HOH   0.0000 
310 O      -24.5761    19.4820    44.2074 O.3   104 HOH   0.0000 
311 H1     -23.6161    19.4820    44.2074 H     104 HOH   0.0000 
312 H2     -24.8663    20.1291    44.8544 H     104 HOH   0.0000 
313 O      -28.4098    -0.9465    36.9468 O.3   105 HOH   0.0000 
314 H1     -27.4498    -0.9465    36.9468 H     105 HOH   0.0000 
315 H2     -28.7000    -0.2995    37.5939 H     105 HOH   0.0000 
316 O       -8.8212    11.9932     8.2163 O.3   106 HOH   0.0000 
317 H1      -7.8612    11.9932     8.2163 H     106 HOH   0.0000 
318 H2      -9.1115    12.6403     8.8634 H     106 HOH   0.0000 
319 O       -9.7876    -2.0892    32.7257 O.3   107 HOH   0.0000 
320 H1      -8.8276    -2.0892    32.7257 H     107 HOH   0.0000 
321 H2     -10.0779    -1.4421    33.3727 H     107 HOH   0.0000 
322 O       -3.1228     2.9679     9.3812 O.3   108 HOH   0.0000 
323 H1      -2.1628     2.9679     9.3812 H     108 HOH   0.0000 
324 H2      -3.4131     3.6150    10.0282 H     108 HOH   0.0000 
325 O       -7.4337     8.9398     7.5437 O.3   109 HOH   0.0000 
326 H1      -6.4737     8.9398     7.5437 H     109 HOH   0.0000 
327 H2      -7.7240     9.5868     8.1908 H     109 HOH   0.0000 
328 O      -30.1016    11.9443    29.8532 O.3   110 HOH   0.0000 
329 H1     -29.1416    11.9443    29.8532 H     110 HOH   0.0000 
330 H2     -30.3919    12.5913    30.5003 H     110 HOH   0.0000 
331 O       -0.2421     3.5026    27.3146 O.3   111 HOH   0.0000 
332 H1       0.7179     3.5026    27.3146 H     111 HOH   0.0000 
333 H2      -0.5323     4.1496    27.9616 H     111 HOH   0.0000 
334 O        2.8518     5.1614    21.2307 O.3   112 HOH   0.0000 
335 H1       3.8118     5.1614    21.2307 H     112 HOH   0.0000 
336 H2       2.5615     5.8085    21.8777 H     112 HOH   0.0000 
337 O      -13.9322    23.5282    14.4938 O.3   113 HOH   0.0000 
338 H1     -12.9722    23.5282    14.4938 H     113 HOH   0.0000 
339 H2     -14.2225    24.1752    15.1409 H     113 HOH   0.0000 
340 O       -7.4675     5.4237    43.9136 O.3   114 HOH   0.0000 
341 H1      -6.5075     5.4237    43.9136 H     114 HOH   0.0000 
342 H2      -7.7578     6.0707    44.5606 H     114 HOH   0.0000 
343 O        4.5065    15.8425    56.7620 O.3   115 HOH   0.0000 
344 H1       5.4665    15.8425    56.7620 H     115 HOH   0.0000 
345 H2       4.2162    16.4895    57.4090 H     115 HOH   0.0000 
346 O        6.5125    28.9552    19.1280 O.3   116 HOH   0.0000 
347 H1       7.4725    28.9552    19.1280 H     116 HOH   0.0000 
348 H2       6.2222    29.6023    19.7750 H     116 HOH   0.0000 
349 O      -18.5026    25.2293    46.1843 O.3   117 HOH   0.0000 
350 H1     -17.5426    25.2293    46.1843 H     117 HOH   0.0000 
351 H2     -18.7929    25.8763    46.8314 H     117 HOH   0.0000 
352 O       -2.4395    16.1792    13.7031 O.3   118 HOH   0.0000 
353 H1      -1.4795    16.1792    13.7031 H     118 HOH   0.0000 
354 H2      -2.7297    16.8262    14.3501 H     118 HOH   0.0000 
355 O       -5.0396     8.0099    11.7580 O.3   119 HOH   0.0000 
356 H1      -4.0796     8.0099    11.7580 H     119 HOH   0.0000 
357 H2      -5.3299     8.6569    12.4050 H     119 HOH   0.0000 
358 O      -16.9729    20.7476    13.7810 O.3   120 HOH   0.0000 
359 H1     -16.0129    20.7476    13.7810 H     120 HOH   0.0000 
360 H2     -17.2632    21.3947    14.4281 H     120 HOH   0.0000 
361 O      -23.9055    12.2764    36.0772 O.3   121 HOH   0.0000 
362 H1     -22.9455    12.2764    36.0772 H     121 HOH   0.0000 
363 H2     -24.1957    12.9234    36.7242 H     121 HOH   0.0000 
364 O       -5.7418     9.5828    10.6577 O.3   122 HOH   0.0000 
365 H1      -4.7818     9.5828    10.6577 H     122 HOH   0.0000 
366 H2      -6.0321    10.2299    11.3048 H     122 HOH   0.0000 
367 O      -27.1174    12.2532    43.8435 O.3   123 HOH   0.0000 
368 H1     -26.1574    12.2532    43.8435 H     123 HOH   0.0000 
369 H2     -27.4077    12.9002    44.4905 H     123 HOH   0.0000 
370 O      -27.5582    14.0305    41.6568 O.3   124 HOH   0.0000 
371 H1     -26.5982    14.0305    41.6568 H     124 HOH   0.0000 
372 H2     -27.8485    14.6775    42.3038 H     124 HOH   0.0000 
373 O       -6.5382     5.0335    34.3236 O.3   125 HOH   0.0000 
374 H1      -5.5782     5.0335    34.3236 H     125 HOH   0.0000 
375 H2      -6.8285     5.6806    34.9707 H     125 HOH   0.0000 
376 O      -24.4080     8.0715    42.9501 O.3   126 HOH   0.0000 
377 H1     -23.4480     8.0715    42.9501 H     126 HOH   0.0000 
378 H2     -24.6983     8.7185    43.5972 H     126 HOH   0.0000 
379 O      -26.3818    15.8160    34.8611 O.3   127 HOH   0.0000 
380 H1     -25.4218    15.8160    34.8611 H     127 HOH   0.0000 
381 H2     -26.6721    16.4631    35.5082 H     127 HOH   0.0000 
382 O      -21.0826    12.2517    32.4139 O.3   128 HOH   0.0000 
383 H1     -20.1226    12.2517    32.4139 H     128 HOH   0.0000 
384 H2     -21.3728    12.8988    33.0610 H     128 HOH   0.0000 
385 O      -23.7931     8.5471    38.1096 O.3   129 HOH   0.0000 
386 H1     -22.8331     8.5471    38.1096 H     129 HOH   0.0000 
387 H2     -24.0834     9.1941    38.7566 H     129 HOH   0.0000 
388 O      -27.9386    13.5988    35.2748 O.3   130 HOH   0.0000 
389 H1     -26.9786    13.5988    35.2748 H     130 HOH   0.0000 
390 H2     -28.2289    14.2458    35.9218 H     130 HOH   0.0000 
391 O      -21.9602    14.7807    32.9934 O.3   131 HOH   0.0000 
392 H1     -21.0002    14.7807    32.9934 H     131 HOH   0.0000 
393 H2     -22.2505    15.4277    33.6404 H     131 HOH   0.0000 
394 O      -19.8194    28.9704    35.2206 O.3   132 HOH   0.0000 
395 H1     -18.8594    28.9704    35.2206 H     132 HOH   0.0000 
396 H2     -20.1096    29.6175    35.8676 H     132 HOH   0.0000 
397 O       -6.2500    12.2295     9.9581 O.3   133 HOH   0.0000 
398 H1      -5.2900    12.2295     9.9581 H     133 HOH   0.0000 
399 H2      -6.5403    12.8766    10.6051 H     133 HOH   0.0000 
@<TRIPOS>BOND
  1   1   2  1   
  2   1   3  1   
  3   4   5  1   
  4   4   6  1   
  5   7   8  1   
  6   7   9  1   
  7  10  11  1   
  8  10  12  1   
  9  13  14  1   
 10  13  15  1   
 11  16  17  1   
 12  16  18  1   
 13  19  20  1   
 14  19  21  1   
 15  22  23  1   
 16  22  24  1   
 17  25  26  1   
 18  25  27  1   
 19  28  29  1   
 20  28  30  1   
 21  31  32  1   
 22  31  33  1   
 23  34  35  1   
 24  34  36  1   
 25  37  38  1   
 26  37  39  1   
 27  40  41  1   
 28  40  42  1   
 29  43  44  1   
 30  43  45  1   
 31  46  47  1   
 32  46  48  1   
 33  49  50  1   
 34  49  51  1   
 35  52  53  1   
 36  52  54  1   
 37  55  56  1   
 38  55  57  1   
 39  58  59  1   
 40  58  60  1   
 41  61  62  1   
 42  61  63  1   
 43  64  65  1   
 44  64  66  1   
 45  67  68  1   
 46  67  69  1   
 47  70  71  1   
 48  70  72  1   
 49  73  74  1   
 50  73  75  1   
 51  76  77  1   
 52  76  78  1   
 53  79  80  1   
 54  79  81  1   
 55  82  83  1   
 56  82  84  1   
 57  85  86  1   
 58  85  87  1   
 59  88  89  1   
 60  88  90  1   
 61  91  92  1   
 62  91  93  1   
 63  94  95  1   
 64  94  96  1   
 65  97  98  1   
 66  97  99  1   
 67 100 101  1   
 68 100 102  1   
 69 103 104  1   
 70 103 105  1   
 71 106 107  1   
 72 106 108  1   
 73 109 110  1   
 74 109 111  1   
 75 112 113  1   
 76 112 114  1   
 77 115 116  1   
 78 115 117  1   
 79 118 119  1   
 80 118 120  1   
 81 121 122  1   
 82 121 123  1   
 83 124 125  1   
 84 124 126  1   
 85 127 128  1   
 86 127 129  1   
 87 130 131  1   
 88 130 132  1   
 89 133 134  1   
 90 133 135  1   
 91 136 137  1   
 92 136 138  1   
 93 139 140  1   
 94 139 141  1   
 95 142 143  1   
 96 142 144  1   
 97 145 146  1   
 98 145 147  1   
 99 148 149  1   
100 148 150  1   
101 151 152  1   
102 151 153  1   
103 154 155  1   
104 154 156  1   
105 157 158  1   
106 157 159  1   
107 160 161  1   
108 160 162  1   
109 163 164  1   
110 163 165  1   
111 166 167  1   
112 166 168  1   
113 169 170  1   
114 169 171  1   
115 172 173  1   
116 172 174  1   
117 175 176  1   
118 175 177  1   
119 178 179  1   
120 178 180  1   
121 181 182  1   
122 181 183  1   
123 184 185  1   
124 184 186  1   
125 187 188  1   
126 187 189  1   
127 190 191  1   
128 190 192  1   
129 193 194  1   
130 193 195  1   
131 196 197  1   
132 196 198  1   
133 199 200  1   
134 199 201  1   
135 202 203  1   
136 202 204  1   
137 205 206  1   
138 205 207  1   
139 208 209  1   
140 208 210  1   
141 211 212  1   
142 211 213  1   
143 214 215  1   
144 214 216  1   
145 217 218  1   
146 217 219  1   
147 220 221  1   
148 220 222  1   
149 223 224  1   
150 223 225  1   
151 226 227  1   
152 226 228  1   
153 229 230  1   
154 229 231  1   
155 232 233  1   
156 232 234  1   
157 235 236  1   
158 235 237  1   
159 238 239  1   
160 238 240  1   
161 241 242  1   
162 241 243  1   
163 244 245  1   
164 244 246  1   
165 247 248  1   
166 247 249  1   
167 250 251  1   
168 250 252  1   
169 253 254  1   
170 253 255  1   
171 256 257  1   
172 256 258  1   
173 259 260  1   
174 259 261  1   
175 262 263  1   
176 262 264  1   
177 265 266  1   
178 265 267  1   
179 268 269  1   
180 268 270  1   
181 271 272  1   
182 271 273  1   
183 274 275  1   
184 274 276  1   
185 277 278  1   
186 277 279  1   
187 280 281  1   
188 280 282  1   
189 283 284  1   
190 283 285  1   
191 286 287  1   
192 286 288  1   
193 289 290  1   
194 289 291  1   
195 292 293  1   
196 292 294  1   
197 295 296  1   
198 295 297  1   
199 298 299  1   
200 298 300  1   
201 301 302  1   
202 301 303  1   
203 304 305  1   
204 304 306  1   
205 307 308  1   
206 307 309  1   
207 310 311  1   
208 310 312  1   
209 313 314  1   
210 313 315  1   
211 316 317  1   
212 316 318  1   
213 319 320  1   
214 319 321  1   
215 322 323  1   
216 322 324  1   
217 325 326  1   
218 325 327  1   
219 328 329  1   
220 328 330  1   
221 331 332  1   
222 331 333  1   
223 334 335  1   
224 334 336  1   
225 337 338  1   
226 337 339  1   
227 340 341  1   
228 340 342  1   
229 343 344  1   
230 343 345  1   
231 346 347  1   
232 346 348  1   
233 349 350  1   
234 349 351  1   
235 352 353  1   
236 352 354  1   
237 355 356  1   
238 355 357  1   
239 358 359  1   
240 358 360  1   
241 361 362  1   
242 361 363  1   
243 364 365  1   
244 364 366  1   
245 367 368  1   
246 367 369  1   
247 370 371  1   
248 370 372  1   
249 373 374  1   
250 373 375  1   
251 376 377  1   
252 376 378  1   
253 379 380  1   
254 379 381  1   
255 382 383  1   
256 382 384  1   
257 385 386  1   
258 385 387  1   
259 388 389  1   
260 388 390  1   
261 391 392  1   
262 391 393  1   
263 394 395  1   
264 394 396  1   
265 397 398  1   
266 397 399  1   
@<TRIPOS>SUBSTRUCTURE
  1 HOH   1 GROUP 4 A **** 0
  2 HOH   4 GROUP 4 A **** 0
  3 HOH   7 GROUP 4 A **** 0
  4 HOH  10 GROUP 4 A **** 0
  5 HOH  13 GROUP 4 A **** 0
  6 HOH  16 GROUP 4 A **** 0
  7 HOH  19 GROUP 4 A **** 0
  8 HOH  22 GROUP 4 A **** 0
  9 HOH  25 GROUP 4 A **** 0
 10 HOH  28 GROUP 4 A **** 0
 11 HOH  31 GROUP 4 A **** 0
 12 HOH  34 GROUP 4 A **** 0
 13 HOH  37 GROUP 4 A **** 0
 14 HOH  40 GROUP 4 A **** 0
 15 HOH  43 GROUP 4 A **** 0
 16 HOH  46 GROUP 4 A **** 0
 17 HOH  49 GROUP 4 A **** 0
 18 HOH  52 GROUP 4 A **** 0
 19 HOH  55 GROUP 4 A **** 0
 20 HOH  58 GROUP 4 A **** 0
 21 HOH  61 GROUP 4 A **** 0
 22 HOH  64 GROUP 4 A **** 0
 23 HOH  67 GROUP 4 A **** 0
 24 HOH  70 GROUP 4 A **** 0
 25 HOH  73 GROUP 4 A **** 0
 26 HOH  76 GROUP 4 A **** 0
 27 HOH  79 GROUP 4 A **** 0
 28 HOH  82 GROUP 4 A **** 0
 29 HOH  85 GROUP 4 A **** 0
 30 HOH  88 GROUP 4 A **** 0
 31 HOH  91 GROUP 4 A **** 0
 32 HOH  94 GROUP 4 A **** 0
 33 HOH  97 GROUP 4 A **** 0
 34 HOH 100 GROUP 4 A **** 0
 35 HOH 103 GROUP 4 A **** 0
 36 HOH 106 GROUP 4 A **** 0
 37 HOH 109 GROUP 4 A **** 0
 38 HOH 112 GROUP 4 A **** 0
 39 HOH 115 GROUP 4 A **** 0
 40 HOH 118 GROUP 4 A **** 0
 41 HOH 121 GROUP 4 A **** 0
 42 HOH 124 GROUP 4 A **** 0
 43 HOH 127 GROUP 4 A **** 0
 44 HOH 130 GROUP 4 A **** 0
 45 HOH 133 GROUP 4 A **** 0
 46 HOH 136 GROUP 4 A **** 0
 47 HOH 139 GROUP 4 A **** 0
 48 HOH 142 GROUP 4 A **** 0
 49 HOH 145 GROUP 4 A **** 0
 50 HOH 148 GROUP 4 A **** 0
 51 HOH 151 GROUP 4 A **** 0
 52 HOH 154 GROUP 4 A **** 0
 53 HOH 157 GROUP 4 A **** 0
 54 HOH 160 GROUP 4 A **** 0
 55 HOH 163 GROUP 4 A **** 0
 56 HOH 166 GROUP 4 A **** 0
 57 HOH 169 GROUP 4 A **** 0
 58 HOH 172 GROUP 4 A **** 0
 59 HOH 175 GROUP 4 A **** 0
 60 HOH 178 GROUP 4 A **** 0
 61 HOH 181 GROUP 4 A **** 0
 62 HOH 184 GROUP 4 A **** 0
 63 HOH 187 GROUP 4 A **** 0
 64 HOH 190 GROUP 4 A **** 0
 65 HOH 193 GROUP 4 A **** 0
 66 HOH 196 GROUP 4 A **** 0
 67 HOH 199 GROUP 4 A **** 0
 68 HOH 202 GROUP 4 A **** 0
 69 HOH 205 GROUP 4 A **** 0
 70 HOH 208 GROUP 4 A **** 0
 71 HOH 211 GROUP 4 A **** 0
 72 HOH 214 GROUP 4 A **** 0
 73 HOH 217 GROUP 4 A **** 0
 74 HOH 220 GROUP 4 A **** 0
 75 HOH 223 GROUP 4 A **** 0
 76 HOH 226 GROUP 4 A **** 0
 77 HOH 229 GROUP 4 A **** 0
 78 HOH 232 GROUP 4 A **** 0
 79 HOH 235 GROUP 4 A **** 0
 80 HOH 238 GROUP 4 A **** 0
 81 HOH 241 GROUP 4 A **** 0
 82 HOH 244 GROUP 4 A **** 0
 83 HOH 247 GROUP 4 A **** 0
 84 HOH 250 GROUP 4 A **** 0
 85 HOH 253 GROUP 4 A **** 0
 86 HOH 256 GROUP 4 A **** 0
 87 HOH 259 GROUP 4 A **** 0
 88 HOH 262 GROUP 4 A **** 0
 89 HOH 265 GROUP 4 A **** 0
 90 HOH 268 GROUP 4 A **** 0
 91 HOH 271 GROUP 4 A **** 0
 92 HOH 274 GROUP 4 A **** 0
 93 HOH 277 GROUP 4 A **** 0
 94 HOH 280 GROUP 4 A **** 0
 95 HOH 283 GROUP 4 A **** 0
 96 HOH 286 GROUP 4 A **** 0
 97 HOH 289 GROUP 4 A **** 0
 98 HOH 292 GROUP 4 A **** 0
 99 HOH 295 GROUP 4 A **** 0
100 HOH 298 GROUP 4 A **** 0
101 HOH 301 GROUP 4 A **** 0
102 HOH 304 GROUP 4 A **** 0
103 HOH 307 GROUP 4 A **** 0
104 HOH 310 GROUP 4 A **** 0
105 HOH 313 GROUP 4 A **** 0
106 HOH 316 GROUP 4 A **** 0
107 HOH 319 GROUP 4 A **** 0
108 HOH 322 GROUP 4 A **** 0
109 HOH 325 GROUP 4 A **** 0
110 HOH 328 GROUP 4 A **** 0
111 HOH 331 GROUP 4 A **** 0
112 HOH 334 GROUP 4 A **** 0
113 HOH 337 GROUP 4 A **** 0
114 HOH 340 GROUP 4 A **** 0
115 HOH 343 GROUP 4 A **** 0
116 HOH 346 GROUP 4 A **** 0
117 HOH 349 GROUP 4 A **** 0
118 HOH 352 GROUP 4 A **** 0
119 HOH 355 GROUP 4 A **** 0
120 HOH 358 GROUP 4 A **** 0
121 HOH 361 GROUP 4 A **** 0
122 HOH 364 GROUP 4 A **** 0
123 HOH 367 GROUP 4 A **** 0
124 HOH 370 GROUP 4 A **** 0
125 HOH 373 GROUP 4 A **** 0
126 HOH 376 GROUP 4 A **** 0
127 HOH 379 GROUP 4 A **** 0
128 HOH 382 GROUP 4 A **** 0
129 HOH 385 GROUP 4 A **** 0
130 HOH 388 GROUP 4 A **** 0
131 HOH 391 GROUP 4 A **** 0
132 HOH 394 GROUP 4 A **** 0
133 HOH 397 GROUP 4 A **** 0

# MOE 2012.10 (io_trps.svl 2012.10)
