@<TRIPOS>MOLECULE
2g1t.D
627 418 209 0 0 
SMALL
USER_CHARGES


@<TRIPOS>ATOM
  1 O        2.3261    15.9110    32.0504 O.3     1 HOH  -0.8340 
  2 H1       2.7061    15.6941    31.1991 H       1 HOH   0.4170 
  3 H2       2.1684    16.8542    32.0096 H       1 HOH   0.4170 
  4 O       -6.2064     9.8182    34.1981 O.3     2 HOH   0.0000 
  5 H1      -5.2464     9.8182    34.1981 H       2 HOH   0.0000 
  6 H2      -6.4967    10.4653    34.8451 H       2 HOH   0.0000 
  7 O       -3.4090     3.6121    28.1587 O.3     3 HOH   0.0000 
  8 H1      -2.4490     3.6121    28.1587 H       3 HOH   0.0000 
  9 H2      -3.6993     4.2591    28.8057 H       3 HOH   0.0000 
 10 O       -2.0702    29.7289    35.5288 O.3     4 HOH   0.0000 
 11 H1      -1.1102    29.7289    35.5288 H       4 HOH   0.0000 
 12 H2      -2.3605    30.3759    36.1759 H       4 HOH   0.0000 
 13 O       -4.5649     7.5680    34.9132 O.3     5 HOH   0.0000 
 14 H1      -3.6049     7.5680    34.9132 H       5 HOH   0.0000 
 15 H2      -4.8552     8.2150    35.5603 H       5 HOH   0.0000 
 16 O      -12.0682     5.9081    13.0900 O.3     6 HOH   0.0000 
 17 H1     -11.1082     5.9081    13.0900 H       6 HOH   0.0000 
 18 H2     -12.3585     6.5551    13.7371 H       6 HOH   0.0000 
 19 O       -9.0280     6.5120    34.1264 O.3     7 HOH   0.0000 
 20 H1      -8.0680     6.5120    34.1264 H       7 HOH   0.0000 
 21 H2      -9.3183     7.1590    34.7734 H       7 HOH   0.0000 
 22 O       18.1261    17.9537    32.3447 O.3     8 HOH   0.0000 
 23 H1      19.0861    17.9537    32.3447 H       8 HOH   0.0000 
 24 H2      17.8358    18.6008    32.9917 H       8 HOH   0.0000 
 25 O        1.6791    20.7041    39.4501 O.3     9 HOH  -0.8340 
 26 H1       1.0742    20.4469    40.1459 H       9 HOH   0.4170 
 27 H2       2.1778    21.4314    39.8224 H       9 HOH   0.4170 
 28 O       -3.3148    15.7428    25.8480 O.3    10 HOH   0.0000 
 29 H1      -2.3548    15.7428    25.8480 H      10 HOH   0.0000 
 30 H2      -3.6051    16.3899    26.4951 H      10 HOH   0.0000 
 31 O       -2.0675    12.0701    39.0783 O.3    11 HOH  -0.8340 
 32 H1      -2.7896    11.4446    39.0198 H      11 HOH   0.4170 
 33 H2      -2.3777    12.8401    38.6018 H      11 HOH   0.4170 
 34 O       -4.4620    12.4082    22.4902 O.3    12 HOH   0.0000 
 35 H1      -3.5020    12.4082    22.4902 H      12 HOH   0.0000 
 36 H2      -4.7523    13.0552    23.1373 H      12 HOH   0.0000 
 37 O       15.0159    17.9306    32.3513 O.3    13 HOH   0.0000 
 38 H1      15.9759    17.9306    32.3513 H      13 HOH   0.0000 
 39 H2      14.7257    18.5776    32.9983 H      13 HOH   0.0000 
 40 O        5.4639    20.7754    40.7928 O.3    14 HOH  -0.8340 
 41 H1       6.2943    21.2177    40.9692 H      14 HOH   0.4170 
 42 H2       5.5719    19.9026    41.1706 H      14 HOH   0.4170 
 43 O        3.4293    17.0455    28.6535 O.3    15 HOH  -0.8340 
 44 H1       2.6600    17.5515    28.3923 H      15 HOH   0.4170 
 45 H2       3.0777    16.3312    29.1849 H      15 HOH   0.4170 
 46 O       -1.8079    16.0023    22.5769 O.3    16 HOH   0.0000 
 47 H1      -0.8479    16.0023    22.5769 H      16 HOH   0.0000 
 48 H2      -2.0981    16.6493    23.2240 H      16 HOH   0.0000 
 49 O      -16.3462     9.3706    17.7348 O.3    17 HOH   0.0000 
 50 H1     -15.3862     9.3706    17.7348 H      17 HOH   0.0000 
 51 H2     -16.6365    10.0176    18.3819 H      17 HOH   0.0000 
 52 O        2.3786    29.2049    34.7646 O.3    18 HOH   0.0000 
 53 H1       3.3386    29.2049    34.7646 H      18 HOH   0.0000 
 54 H2       2.0884    29.8519    35.4116 H      18 HOH   0.0000 
 55 O       18.7545    16.4045    34.7028 O.3    19 HOH   0.0000 
 56 H1      19.7145    16.4045    34.7028 H      19 HOH   0.0000 
 57 H2      18.4643    17.0515    35.3498 H      19 HOH   0.0000 
 58 O       14.7773    12.8254    40.5166 O.3    20 HOH   0.0000 
 59 H1      15.7373    12.8254    40.5166 H      20 HOH   0.0000 
 60 H2      14.4870    13.4724    41.1636 H      20 HOH   0.0000 
 61 O       -4.5542    29.4341    38.5867 O.3    21 HOH   0.0000 
 62 H1      -3.5942    29.4341    38.5867 H      21 HOH   0.0000 
 63 H2      -4.8444    30.0811    39.2338 H      21 HOH   0.0000 
 64 O       -6.1102     5.8851    21.8467 O.3    22 HOH   0.0000 
 65 H1      -5.1502     5.8851    21.8467 H      22 HOH   0.0000 
 66 H2      -6.4004     6.5322    22.4938 H      22 HOH   0.0000 
 67 O      -23.6006    15.8117    34.2484 O.3    23 HOH   0.0000 
 68 H1     -22.6406    15.8117    34.2484 H      23 HOH   0.0000 
 69 H2     -23.8908    16.4587    34.8955 H      23 HOH   0.0000 
 70 O      -13.1003    27.8831    38.2949 O.3    24 HOH   0.0000 
 71 H1     -12.1403    27.8831    38.2949 H      24 HOH   0.0000 
 72 H2     -13.3906    28.5302    38.9420 H      24 HOH   0.0000 
 73 O        1.8578    29.8952    24.7730 O.3    25 HOH   0.0000 
 74 H1       2.8178    29.8952    24.7730 H      25 HOH   0.0000 
 75 H2       1.5675    30.5422    25.4200 H      25 HOH   0.0000 
 76 O       11.1861    31.4708    26.1427 O.3    26 HOH   0.0000 
 77 H1      12.1461    31.4708    26.1427 H      26 HOH   0.0000 
 78 H2      10.8959    32.1178    26.7897 H      26 HOH   0.0000 
 79 O       -1.5348    22.4304    17.3886 O.3    27 HOH   0.0000 
 80 H1      -0.5748    22.4304    17.3886 H      27 HOH   0.0000 
 81 H2      -1.8251    23.0774    18.0357 H      27 HOH   0.0000 
 82 O       -8.4864     6.8934    23.1411 O.3    28 HOH   0.0000 
 83 H1      -7.5264     6.8934    23.1411 H      28 HOH   0.0000 
 84 H2      -8.7766     7.5404    23.7882 H      28 HOH   0.0000 
 85 O        1.3356    21.8824    36.8650 O.3    29 HOH  -0.8340 
 86 H1       1.9123    21.4652    37.5050 H      29 HOH   0.4170 
 87 H2       1.4228    22.8197    37.0385 H      29 HOH   0.4170 
 88 O       -6.1355    10.3568    13.3392 O.3    30 HOH   0.0000 
 89 H1      -5.1755    10.3568    13.3392 H      30 HOH   0.0000 
 90 H2      -6.4257    11.0038    13.9863 H      30 HOH   0.0000 
 91 O       17.5333    30.3747    28.5045 O.3    31 HOH   0.0000 
 92 H1      18.4933    30.3747    28.5045 H      31 HOH   0.0000 
 93 H2      17.2430    31.0218    29.1516 H      31 HOH   0.0000 
 94 O       12.1355    11.7494    41.2989 O.3    32 HOH   0.0000 
 95 H1      13.0955    11.7494    41.2989 H      32 HOH   0.0000 
 96 H2      11.8452    12.3965    41.9459 H      32 HOH   0.0000 
 97 O       12.4870    30.6610    50.3399 O.3    33 HOH   0.0000 
 98 H1      13.4470    30.6610    50.3399 H      33 HOH   0.0000 
 99 H2      12.1968    31.3081    50.9869 H      33 HOH   0.0000 
100 O       18.3110    12.8540    23.9086 O.3    34 HOH   0.0000 
101 H1      19.2710    12.8540    23.9086 H      34 HOH   0.0000 
102 H2      18.0207    13.5011    24.5556 H      34 HOH   0.0000 
103 O        8.1261    34.0891    31.0028 O.3    35 HOH   0.0000 
104 H1       9.0861    34.0891    31.0028 H      35 HOH   0.0000 
105 H2       7.8358    34.7361    31.6499 H      35 HOH   0.0000 
106 O        3.3113    31.9028    36.1897 O.3    36 HOH   0.0000 
107 H1       4.2713    31.9028    36.1897 H      36 HOH   0.0000 
108 H2       3.0211    32.5499    36.8367 H      36 HOH   0.0000 
109 O       11.1145    16.9501    24.7049 O.3    37 HOH   0.0000 
110 H1      12.0745    16.9501    24.7049 H      37 HOH   0.0000 
111 H2      10.8242    17.5971    25.3520 H      37 HOH   0.0000 
112 O        3.7038    13.3991    25.7307 O.3    38 HOH   0.0000 
113 H1       4.6638    13.3991    25.7307 H      38 HOH   0.0000 
114 H2       3.4135    14.0461    26.3777 H      38 HOH   0.0000 
115 O       23.8109    26.6720    26.8594 O.3    39 HOH   0.0000 
116 H1      24.7709    26.6720    26.8594 H      39 HOH   0.0000 
117 H2      23.5206    27.3190    27.5065 H      39 HOH   0.0000 
118 O      -14.6139     0.2508    25.8866 O.3    40 HOH   0.0000 
119 H1     -13.6539     0.2508    25.8866 H      40 HOH   0.0000 
120 H2     -14.9042     0.8979    26.5337 H      40 HOH   0.0000 
121 O       17.0510    10.1986    23.5987 O.3    41 HOH   0.0000 
122 H1      18.0110    10.1986    23.5987 H      41 HOH   0.0000 
123 H2      16.7607    10.8456    24.2458 H      41 HOH   0.0000 
124 O       16.5872    34.1568    41.6804 O.3    42 HOH   0.0000 
125 H1      17.5472    34.1568    41.6804 H      42 HOH   0.0000 
126 H2      16.2969    34.8039    42.3275 H      42 HOH   0.0000 
127 O      -17.4892    14.1601    47.7740 O.3    43 HOH   0.0000 
128 H1     -16.5292    14.1601    47.7740 H      43 HOH   0.0000 
129 H2     -17.7795    14.8071    48.4211 H      43 HOH   0.0000 
130 O       -9.2545    29.0149    22.1817 O.3    44 HOH   0.0000 
131 H1      -8.2945    29.0149    22.1817 H      44 HOH   0.0000 
132 H2      -9.5448    29.6619    22.8288 H      44 HOH   0.0000 
133 O        0.9505    26.6630    46.4271 O.3    45 HOH   0.0000 
134 H1       1.9105    26.6630    46.4271 H      45 HOH   0.0000 
135 H2       0.6602    27.3101    47.0741 H      45 HOH   0.0000 
136 O       -8.7077    23.5847    18.1425 O.3    46 HOH   0.0000 
137 H1      -7.7477    23.5847    18.1425 H      46 HOH   0.0000 
138 H2      -8.9979    24.2318    18.7895 H      46 HOH   0.0000 
139 O       23.2608    23.7396    23.1539 O.3    47 HOH   0.0000 
140 H1      24.2208    23.7396    23.1539 H      47 HOH   0.0000 
141 H2      22.9705    24.3866    23.8010 H      47 HOH   0.0000 
142 O      -13.6344    20.1499    46.4416 O.3    48 HOH   0.0000 
143 H1     -12.6744    20.1499    46.4416 H      48 HOH   0.0000 
144 H2     -13.9247    20.7969    47.0886 H      48 HOH   0.0000 
145 O       -2.9611    -0.0344    20.2182 O.3    49 HOH   0.0000 
146 H1      -2.0011    -0.0344    20.2182 H      49 HOH   0.0000 
147 H2      -3.2514     0.6127    20.8652 H      49 HOH   0.0000 
148 O        0.6431    32.8032    27.8909 O.3    50 HOH   0.0000 
149 H1       1.6031    32.8032    27.8909 H      50 HOH   0.0000 
150 H2       0.3528    33.4503    28.5379 H      50 HOH   0.0000 
151 O        3.2559    23.8532    22.2778 O.3    51 HOH   0.0000 
152 H1       4.2159    23.8532    22.2778 H      51 HOH   0.0000 
153 H2       2.9657    24.5003    22.9248 H      51 HOH   0.0000 
154 O       17.4021    20.7158    41.6284 O.3    52 HOH   0.0000 
155 H1      18.3621    20.7158    41.6284 H      52 HOH   0.0000 
156 H2      17.1118    21.3628    42.2754 H      52 HOH   0.0000 
157 O      -17.3989     1.2754    26.1157 O.3    53 HOH   0.0000 
158 H1     -16.4389     1.2754    26.1157 H      53 HOH   0.0000 
159 H2     -17.6892     1.9224    26.7627 H      53 HOH   0.0000 
160 O        3.3709    27.8782    23.1913 O.3    54 HOH   0.0000 
161 H1       4.3309    27.8782    23.1913 H      54 HOH   0.0000 
162 H2       3.0806    28.5252    23.8383 H      54 HOH   0.0000 
163 O       -5.9720     3.0750    33.0082 O.3    55 HOH   0.0000 
164 H1      -5.0120     3.0750    33.0082 H      55 HOH   0.0000 
165 H2      -6.2623     3.7221    33.6553 H      55 HOH   0.0000 
166 O      -13.4456     5.8033    22.3221 O.3    56 HOH   0.0000 
167 H1     -12.4856     5.8033    22.3221 H      56 HOH   0.0000 
168 H2     -13.7359     6.4504    22.9691 H      56 HOH   0.0000 
169 O       -8.0087    -6.7320    23.7625 O.3    57 HOH   0.0000 
170 H1      -7.0487    -6.7320    23.7625 H      57 HOH   0.0000 
171 H2      -8.2990    -6.0850    24.4095 H      57 HOH   0.0000 
172 O       17.6955    27.5324    39.7432 O.3    58 HOH   0.0000 
173 H1      18.6555    27.5324    39.7432 H      58 HOH   0.0000 
174 H2      17.4053    28.1794    40.3903 H      58 HOH   0.0000 
175 O       -8.7661    25.5717    46.7971 O.3    59 HOH   0.0000 
176 H1      -7.8061    25.5717    46.7971 H      59 HOH   0.0000 
177 H2      -9.0564    26.2188    47.4441 H      59 HOH   0.0000 
178 O       -3.9829    22.7469    24.1222 O.3    60 HOH  -0.8340 
179 H1      -4.5748    23.2989    23.6111 H      60 HOH   0.4170 
180 H2      -3.1443    23.2077    24.0981 H      60 HOH   0.4170 
181 O       -2.8127    12.0184    27.7260 O.3    61 HOH   0.0000 
182 H1      -1.8527    12.0184    27.7260 H      61 HOH   0.0000 
183 H2      -3.1029    12.6654    28.3730 H      61 HOH   0.0000 
184 O      -15.4690     4.7318    42.6684 O.3    62 HOH   0.0000 
185 H1     -14.5090     4.7318    42.6684 H      62 HOH   0.0000 
186 H2     -15.7593     5.3788    43.3154 H      62 HOH   0.0000 
187 O      -18.5238     3.1354    28.0650 O.3    63 HOH   0.0000 
188 H1     -17.5638     3.1354    28.0650 H      63 HOH   0.0000 
189 H2     -18.8141     3.7824    28.7121 H      63 HOH   0.0000 
190 O        3.1226    31.2409    27.1039 O.3    64 HOH   0.0000 
191 H1       4.0826    31.2409    27.1039 H      64 HOH   0.0000 
192 H2       2.8323    31.8879    27.7509 H      64 HOH   0.0000 
193 O       23.6234    22.5122    30.4110 O.3    65 HOH   0.0000 
194 H1      24.5834    22.5122    30.4110 H      65 HOH   0.0000 
195 H2      23.3331    23.1592    31.0580 H      65 HOH   0.0000 
196 O       23.0400    25.1219    29.0799 O.3    66 HOH   0.0000 
197 H1      24.0000    25.1219    29.0799 H      66 HOH   0.0000 
198 H2      22.7497    25.7690    29.7270 H      66 HOH   0.0000 
199 O       -2.9819     7.4467    37.3021 O.3    67 HOH  -0.8340 
200 H1      -3.3439     8.1195    37.8787 H      67 HOH   0.4170 
201 H2      -3.3720     6.6295    37.6124 H      67 HOH   0.4170 
202 O       15.8473    16.9958    35.1129 O.3    68 HOH   0.0000 
203 H1      16.8073    16.9958    35.1129 H      68 HOH   0.0000 
204 H2      15.5570    17.6428    35.7600 H      68 HOH   0.0000 
205 O        4.6791    19.0120    22.0237 O.3    69 HOH   0.0000 
206 H1       5.6391    19.0120    22.0237 H      69 HOH   0.0000 
207 H2       4.3889    19.6591    22.6707 H      69 HOH   0.0000 
208 O       -7.6909    13.2983    44.9943 O.3    70 HOH   0.0000 
209 H1      -6.7309    13.2983    44.9943 H      70 HOH   0.0000 
210 H2      -7.9812    13.9454    45.6413 H      70 HOH   0.0000 
211 O      -14.4030     4.5105    39.7386 O.3    71 HOH   0.0000 
212 H1     -13.4430     4.5105    39.7386 H      71 HOH   0.0000 
213 H2     -14.6932     5.1576    40.3856 H      71 HOH   0.0000 
214 O       11.9883    20.1216    24.6182 O.3    72 HOH   0.0000 
215 H1      12.9483    20.1216    24.6182 H      72 HOH   0.0000 
216 H2      11.6980    20.7686    25.2653 H      72 HOH   0.0000 
217 O       18.8615    23.6629    41.6026 O.3    73 HOH   0.0000 
218 H1      19.8215    23.6629    41.6026 H      73 HOH   0.0000 
219 H2      18.5712    24.3099    42.2496 H      73 HOH   0.0000 
220 O        4.3058    21.1490    35.6702 O.3    74 HOH  -0.8340 
221 H1       3.7450    21.4734    34.9655 H      74 HOH   0.4170 
222 H2       3.9790    20.2676    35.8505 H      74 HOH   0.4170 
223 O        5.0749    25.5056    24.0604 O.3    75 HOH   0.0000 
224 H1       6.0349    25.5056    24.0604 H      75 HOH   0.0000 
225 H2       4.7846    26.1527    24.7074 H      75 HOH   0.0000 
226 O       -3.9604     9.6868    38.9100 O.3    76 HOH  -0.8340 
227 H1      -3.5976     9.0940    39.5682 H      76 HOH   0.4170 
228 H2      -4.8024     9.9618    39.2729 H      76 HOH   0.4170 
229 O       14.3841    20.1731    52.4603 O.3    77 HOH   0.0000 
230 H1      15.3441    20.1731    52.4603 H      77 HOH   0.0000 
231 H2      14.0938    20.8202    53.1074 H      77 HOH   0.0000 
232 O        9.7473    13.9294    27.2397 O.3    78 HOH   0.0000 
233 H1      10.7073    13.9294    27.2397 H      78 HOH   0.0000 
234 H2       9.4570    14.5764    27.8868 H      78 HOH   0.0000 
235 O        2.6418    24.5913    36.3536 O.3    79 HOH   0.0000 
236 H1       3.6018    24.5913    36.3536 H      79 HOH   0.0000 
237 H2       2.3516    25.2384    37.0006 H      79 HOH   0.0000 
238 O       -5.9996    23.9997    46.2250 O.3    80 HOH   0.0000 
239 H1      -5.0396    23.9997    46.2250 H      80 HOH   0.0000 
240 H2      -6.2899    24.6468    46.8720 H      80 HOH   0.0000 
241 O       -0.6647    11.5070    29.7355 O.3    81 HOH   0.0000 
242 H1       0.2953    11.5070    29.7355 H      81 HOH   0.0000 
243 H2      -0.9550    12.1540    30.3826 H      81 HOH   0.0000 
244 O        8.3940     8.6374    39.1642 O.3    82 HOH   0.0000 
245 H1       9.3540     8.6374    39.1642 H      82 HOH   0.0000 
246 H2       8.1037     9.2844    39.8113 H      82 HOH   0.0000 
247 O       16.3079     9.5541    37.7212 O.3    83 HOH   0.0000 
248 H1      17.2679     9.5541    37.7212 H      83 HOH   0.0000 
249 H2      16.0176    10.2011    38.3683 H      83 HOH   0.0000 
250 O      -21.0398    15.2408    32.4974 O.3    84 HOH   0.0000 
251 H1     -20.0798    15.2408    32.4974 H      84 HOH   0.0000 
252 H2     -21.3300    15.8879    33.1444 H      84 HOH   0.0000 
253 O      -14.0822     9.5134    12.7759 O.3    85 HOH   0.0000 
254 H1     -13.1222     9.5134    12.7759 H      85 HOH   0.0000 
255 H2     -14.3724    10.1605    13.4230 H      85 HOH   0.0000 
256 O       -6.5031    -7.1842    15.0745 O.3    86 HOH   0.0000 
257 H1      -5.5431    -7.1842    15.0745 H      86 HOH   0.0000 
258 H2      -6.7934    -6.5372    15.7215 H      86 HOH   0.0000 
259 O       13.3837    12.8242    44.1931 O.3    87 HOH   0.0000 
260 H1      14.3437    12.8242    44.1931 H      87 HOH   0.0000 
261 H2      13.0935    13.4712    44.8401 H      87 HOH   0.0000 
262 O        7.2331    39.1456    48.2820 O.3    88 HOH   0.0000 
263 H1       8.1931    39.1456    48.2820 H      88 HOH   0.0000 
264 H2       6.9428    39.7927    48.9290 H      88 HOH   0.0000 
265 O      -26.7181    12.1470    34.7781 O.3    89 HOH   0.0000 
266 H1     -25.7581    12.1470    34.7781 H      89 HOH   0.0000 
267 H2     -27.0084    12.7941    35.4252 H      89 HOH   0.0000 
268 O       -6.0132    34.5826    31.7685 O.3    90 HOH   0.0000 
269 H1      -5.0532    34.5826    31.7685 H      90 HOH   0.0000 
270 H2      -6.3035    35.2297    32.4155 H      90 HOH   0.0000 
271 O       15.2797    11.5101    31.5117 O.3    91 HOH   0.0000 
272 H1      16.2397    11.5101    31.5117 H      91 HOH   0.0000 
273 H2      14.9894    12.1571    32.1588 H      91 HOH   0.0000 
274 O       12.5101    36.9537    36.0539 O.3    92 HOH   0.0000 
275 H1      13.4701    36.9537    36.0539 H      92 HOH   0.0000 
276 H2      12.2198    37.6007    36.7009 H      92 HOH   0.0000 
277 O      -17.1538     7.5928    43.7915 O.3    93 HOH   0.0000 
278 H1     -16.1938     7.5928    43.7915 H      93 HOH   0.0000 
279 H2     -17.4441     8.2398    44.4385 H      93 HOH   0.0000 
280 O      -23.3395     4.2649    23.1675 O.3    94 HOH   0.0000 
281 H1     -22.3795     4.2649    23.1675 H      94 HOH   0.0000 
282 H2     -23.6298     4.9119    23.8145 H      94 HOH   0.0000 
283 O       18.5907    18.2188    24.9961 O.3    95 HOH   0.0000 
284 H1      19.5507    18.2188    24.9961 H      95 HOH   0.0000 
285 H2      18.3004    18.8659    25.6432 H      95 HOH   0.0000 
286 O       -8.2221    -6.1136    12.5087 O.3    96 HOH   0.0000 
287 H1      -7.2621    -6.1136    12.5087 H      96 HOH   0.0000 
288 H2      -8.5124    -5.4666    13.1557 H      96 HOH   0.0000 
289 O        1.6274     8.7308    42.3547 O.3    97 HOH  -0.8340 
290 H1       0.8378     8.4998    42.8440 H      97 HOH   0.4170 
291 H2       1.6925     8.0611    41.6740 H      97 HOH   0.4170 
292 O        8.6610    10.9417    51.6024 O.3    98 HOH   0.0000 
293 H1       9.6210    10.9417    51.6024 H      98 HOH   0.0000 
294 H2       8.3708    11.5888    52.2494 H      98 HOH   0.0000 
295 O      -32.4216    21.6084    38.2366 O.3    99 HOH   0.0000 
296 H1     -31.4616    21.6084    38.2366 H      99 HOH   0.0000 
297 H2     -32.7118    22.2555    38.8836 H      99 HOH   0.0000 
298 O      -14.5539    21.3185    49.2774 O.3   100 HOH   0.0000 
299 H1     -13.5939    21.3185    49.2774 H     100 HOH   0.0000 
300 H2     -14.8441    21.9656    49.9245 H     100 HOH   0.0000 
301 O       16.6940     9.0555    34.0200 O.3   101 HOH   0.0000 
302 H1      17.6540     9.0555    34.0200 H     101 HOH   0.0000 
303 H2      16.4037     9.7026    34.6670 H     101 HOH   0.0000 
304 O      -29.5358    13.1939    27.8794 O.3   102 HOH   0.0000 
305 H1     -28.5758    13.1939    27.8794 H     102 HOH   0.0000 
306 H2     -29.8260    13.8409    28.5264 H     102 HOH   0.0000 
307 O       -2.5641    15.8958    15.6893 O.3   103 HOH   0.0000 
308 H1      -1.6041    15.8958    15.6893 H     103 HOH   0.0000 
309 H2      -2.8544    16.5429    16.3363 H     103 HOH   0.0000 
310 O       13.8985    25.4239    24.5221 O.3   104 HOH   0.0000 
311 H1      14.8585    25.4239    24.5221 H     104 HOH   0.0000 
312 H2      13.6082    26.0710    25.1691 H     104 HOH   0.0000 
313 O       19.9377    30.5427    30.5385 O.3   105 HOH   0.0000 
314 H1      20.8977    30.5427    30.5385 H     105 HOH   0.0000 
315 H2      19.6474    31.1897    31.1855 H     105 HOH   0.0000 
316 O       16.7615    28.0955    36.9730 O.3   106 HOH   0.0000 
317 H1      17.7215    28.0955    36.9730 H     106 HOH   0.0000 
318 H2      16.4713    28.7425    37.6200 H     106 HOH   0.0000 
319 O        2.9593    22.8498    33.5251 O.3   107 HOH  -0.8340 
320 H1       2.2188    23.4552    33.5648 H     107 HOH   0.4170 
321 H2       3.0609    22.6560    32.5932 H     107 HOH   0.4170 
322 O       12.6143     9.9344    31.9521 O.3   108 HOH   0.0000 
323 H1      13.5743     9.9344    31.9521 H     108 HOH   0.0000 
324 H2      12.3240    10.5814    32.5991 H     108 HOH   0.0000 
325 O      -15.0042    -2.3140    27.2121 O.3   109 HOH   0.0000 
326 H1     -14.0442    -2.3140    27.2121 H     109 HOH   0.0000 
327 H2     -15.2945    -1.6669    27.8592 H     109 HOH   0.0000 
328 O       11.2040    26.5398    23.9944 O.3   110 HOH   0.0000 
329 H1      12.1640    26.5398    23.9944 H     110 HOH   0.0000 
330 H2      10.9137    27.1868    24.6415 H     110 HOH   0.0000 
331 O       24.6576    20.5617    22.8133 O.3   111 HOH   0.0000 
332 H1      25.6176    20.5617    22.8133 H     111 HOH   0.0000 
333 H2      24.3674    21.2087    23.4604 H     111 HOH   0.0000 
334 O        9.5372    36.6945    34.9419 O.3   112 HOH   0.0000 
335 H1      10.4972    36.6945    34.9419 H     112 HOH   0.0000 
336 H2       9.2470    37.3415    35.5889 H     112 HOH   0.0000 
337 O       23.7451    23.9636    36.8439 O.3   113 HOH   0.0000 
338 H1      24.7051    23.9636    36.8439 H     113 HOH   0.0000 
339 H2      23.4548    24.6107    37.4910 H     113 HOH   0.0000 
340 O       21.0073    24.8057    26.2213 O.3   114 HOH   0.0000 
341 H1      21.9673    24.8057    26.2213 H     114 HOH   0.0000 
342 H2      20.7171    25.4528    26.8684 H     114 HOH   0.0000 
343 O       -6.4622    26.4898    44.1893 O.3   115 HOH   0.0000 
344 H1      -5.5022    26.4898    44.1893 H     115 HOH   0.0000 
345 H2      -6.7525    27.1368    44.8364 H     115 HOH   0.0000 
346 O       -3.6734    26.7576    45.4172 O.3   116 HOH   0.0000 
347 H1      -2.7134    26.7576    45.4172 H     116 HOH   0.0000 
348 H2      -3.9636    27.4047    46.0643 H     116 HOH   0.0000 
349 O       16.3503    26.1272    22.5950 O.3   117 HOH   0.0000 
350 H1      17.3103    26.1272    22.5950 H     117 HOH   0.0000 
351 H2      16.0600    26.7742    23.2421 H     117 HOH   0.0000 
352 O      -14.8329    17.9518    48.3476 O.3   118 HOH   0.0000 
353 H1     -13.8729    17.9518    48.3476 H     118 HOH   0.0000 
354 H2     -15.1231    18.5988    48.9947 H     118 HOH   0.0000 
355 O        0.1837    27.6461    52.1427 O.3   119 HOH   0.0000 
356 H1       1.1437    27.6461    52.1427 H     119 HOH   0.0000 
357 H2      -0.1065    28.2931    52.7898 H     119 HOH   0.0000 
358 O        5.2771     5.5021    34.0511 O.3   120 HOH   0.0000 
359 H1       6.2371     5.5021    34.0511 H     120 HOH   0.0000 
360 H2       4.9869     6.1491    34.6981 H     120 HOH   0.0000 
361 O      -27.0690    17.0329    39.6298 O.3   121 HOH   0.0000 
362 H1     -26.1090    17.0329    39.6298 H     121 HOH   0.0000 
363 H2     -27.3593    17.6799    40.2769 H     121 HOH   0.0000 
364 O      -24.3830    23.1327    24.3262 O.3   122 HOH   0.0000 
365 H1     -23.4230    23.1327    24.3262 H     122 HOH   0.0000 
366 H2     -24.6733    23.7797    24.9733 H     122 HOH   0.0000 
367 O       18.4822    29.6531    49.7466 O.3   123 HOH   0.0000 
368 H1      19.4422    29.6531    49.7466 H     123 HOH   0.0000 
369 H2      18.1919    30.3001    50.3937 H     123 HOH   0.0000 
370 O        0.9020    11.7986    26.3728 O.3   124 HOH   0.0000 
371 H1       1.8620    11.7986    26.3728 H     124 HOH   0.0000 
372 H2       0.6117    12.4456    27.0199 H     124 HOH   0.0000 
373 O      -13.6446    27.8597    17.3541 O.3   125 HOH   0.0000 
374 H1     -12.6846    27.8597    17.3541 H     125 HOH   0.0000 
375 H2     -13.9349    28.5067    18.0011 H     125 HOH   0.0000 
376 O       16.2422     6.2653    24.4235 O.3   126 HOH   0.0000 
377 H1      17.2022     6.2653    24.4235 H     126 HOH   0.0000 
378 H2      15.9519     6.9124    25.0705 H     126 HOH   0.0000 
379 O       -0.5545    15.2533    37.9457 O.3   127 HOH  -0.8340 
380 H1      -0.6459    15.9751    38.5676 H     127 HOH   0.4170 
381 H2      -1.4270    14.8619    37.9024 H     127 HOH   0.4170 
382 O       -2.3693    13.6057    24.1160 O.3   128 HOH   0.0000 
383 H1      -1.4093    13.6057    24.1160 H     128 HOH   0.0000 
384 H2      -2.6596    14.2528    24.7630 H     128 HOH   0.0000 
385 O       -6.4126     5.4122    34.6549 O.3   129 HOH   0.0000 
386 H1      -5.4526     5.4122    34.6549 H     129 HOH   0.0000 
387 H2      -6.7029     6.0592    35.3019 H     129 HOH   0.0000 
388 O       -4.1416    21.3394    16.2902 O.3   130 HOH   0.0000 
389 H1      -3.1816    21.3394    16.2902 H     130 HOH   0.0000 
390 H2      -4.4318    21.9865    16.9372 H     130 HOH   0.0000 
391 O       20.0925    24.6598    44.3316 O.3   131 HOH   0.0000 
392 H1      21.0525    24.6598    44.3316 H     131 HOH   0.0000 
393 H2      19.8023    25.3068    44.9786 H     131 HOH   0.0000 
394 O      -12.5677     1.9909    39.5918 O.3   132 HOH   0.0000 
395 H1     -11.6077     1.9909    39.5918 H     132 HOH   0.0000 
396 H2     -12.8580     2.6380    40.2388 H     132 HOH   0.0000 
397 O        5.1882    19.6754    38.0905 O.3   133 HOH  -0.8340 
398 H1       4.8261    19.9520    38.9323 H     133 HOH   0.4170 
399 H2       4.4223    19.4507    37.5621 H     133 HOH   0.4170 
400 O       12.7137    32.2449    47.4076 O.3   134 HOH   0.0000 
401 H1      13.6737    32.2449    47.4076 H     134 HOH   0.0000 
402 H2      12.4235    32.8919    48.0547 H     134 HOH   0.0000 
403 O       11.3125     9.5106    39.5334 O.3   135 HOH   0.0000 
404 H1      12.2725     9.5106    39.5334 H     135 HOH   0.0000 
405 H2      11.0222    10.1576    40.1804 H     135 HOH   0.0000 
406 O      -15.6930     8.4004    15.0869 O.3   136 HOH   0.0000 
407 H1     -14.7330     8.4004    15.0869 H     136 HOH   0.0000 
408 H2     -15.9833     9.0474    15.7339 H     136 HOH   0.0000 
409 O       -1.4806    10.8413    24.9364 O.3   137 HOH   0.0000 
410 H1      -0.5206    10.8413    24.9364 H     137 HOH   0.0000 
411 H2      -1.7708    11.4884    25.5835 H     137 HOH   0.0000 
412 O       16.7234    38.1342    35.6313 O.3   138 HOH   0.0000 
413 H1      17.6834    38.1342    35.6313 H     138 HOH   0.0000 
414 H2      16.4331    38.7812    36.2784 H     138 HOH   0.0000 
415 O       24.9218    24.6947    34.1048 O.3   139 HOH   0.0000 
416 H1      25.8818    24.6947    34.1048 H     139 HOH   0.0000 
417 H2      24.6316    25.3417    34.7519 H     139 HOH   0.0000 
418 O      -26.1589    16.9418    33.0781 O.3   140 HOH   0.0000 
419 H1     -25.1989    16.9418    33.0781 H     140 HOH   0.0000 
420 H2     -26.4491    17.5888    33.7251 H     140 HOH   0.0000 
421 O        9.3771    35.4064    28.5261 O.3   141 HOH   0.0000 
422 H1      10.3371    35.4064    28.5261 H     141 HOH   0.0000 
423 H2       9.0868    36.0535    29.1732 H     141 HOH   0.0000 
424 O      -10.4776    12.2980    47.8709 O.3   142 HOH   0.0000 
425 H1      -9.5176    12.2980    47.8709 H     142 HOH   0.0000 
426 H2     -10.7679    12.9450    48.5179 H     142 HOH   0.0000 
427 O       -3.9081     8.8325    12.0518 O.3   143 HOH   0.0000 
428 H1      -2.9481     8.8325    12.0518 H     143 HOH   0.0000 
429 H2      -4.1984     9.4796    12.6988 H     143 HOH   0.0000 
430 O       10.4868    34.9054    32.7473 O.3   144 HOH   0.0000 
431 H1      11.4468    34.9054    32.7473 H     144 HOH   0.0000 
432 H2      10.1965    35.5525    33.3944 H     144 HOH   0.0000 
433 O      -13.1769    29.8173    29.2677 O.3   145 HOH   0.0000 
434 H1     -12.2169    29.8173    29.2677 H     145 HOH   0.0000 
435 H2     -13.4672    30.4643    29.9147 H     145 HOH   0.0000 
436 O       -0.9646    26.3777    49.5537 O.3   146 HOH   0.0000 
437 H1      -0.0046    26.3777    49.5537 H     146 HOH   0.0000 
438 H2      -1.2548    27.0247    50.2007 H     146 HOH   0.0000 
439 O        7.6109    36.6070    37.4290 O.3   147 HOH   0.0000 
440 H1       8.5709    36.6070    37.4290 H     147 HOH   0.0000 
441 H2       7.3206    37.2541    38.0760 H     147 HOH   0.0000 
442 O       20.1834    26.0615    23.6273 O.3   148 HOH   0.0000 
443 H1      21.1434    26.0615    23.6273 H     148 HOH   0.0000 
444 H2      19.8931    26.7085    24.2743 H     148 HOH   0.0000 
445 O        0.6675    35.2861    26.2188 O.3   149 HOH   0.0000 
446 H1       1.6275    35.2861    26.2188 H     149 HOH   0.0000 
447 H2       0.3773    35.9331    26.8658 H     149 HOH   0.0000 
448 O       17.8106    31.0971    25.7193 O.3   150 HOH   0.0000 
449 H1      18.7706    31.0971    25.7193 H     150 HOH   0.0000 
450 H2      17.5203    31.7441    26.3664 H     150 HOH   0.0000 
451 O       10.5050    11.3388    29.9184 O.3   151 HOH   0.0000 
452 H1      11.4650    11.3388    29.9184 H     151 HOH   0.0000 
453 H2      10.2148    11.9859    30.5655 H     151 HOH   0.0000 
454 O      -12.5368     0.3479    34.1321 O.3   152 HOH   0.0000 
455 H1     -11.5768     0.3479    34.1321 H     152 HOH   0.0000 
456 H2     -12.8271     0.9950    34.7791 H     152 HOH   0.0000 
457 O        1.9655    26.5049    54.4150 O.3   153 HOH   0.0000 
458 H1       2.9255    26.5049    54.4150 H     153 HOH   0.0000 
459 H2       1.6752    27.1520    55.0620 H     153 HOH   0.0000 
460 O       21.7104    14.5539    38.7583 O.3   154 HOH   0.0000 
461 H1      22.6704    14.5539    38.7583 H     154 HOH   0.0000 
462 H2      21.4201    15.2009    39.4054 H     154 HOH   0.0000 
463 O       10.9933    31.9241    23.1632 O.3   155 HOH   0.0000 
464 H1      11.9533    31.9241    23.1632 H     155 HOH   0.0000 
465 H2      10.7030    32.5712    23.8102 H     155 HOH   0.0000 
466 O      -12.9192    15.8999    49.8163 O.3   156 HOH   0.0000 
467 H1     -11.9592    15.8999    49.8163 H     156 HOH   0.0000 
468 H2     -13.2095    16.5469    50.4634 H     156 HOH   0.0000 
469 O      -15.6535    29.5465    24.7796 O.3   157 HOH   0.0000 
470 H1     -14.6935    29.5465    24.7796 H     157 HOH   0.0000 
471 H2     -15.9438    30.1935    25.4267 H     157 HOH   0.0000 
472 O       -3.9009     4.6307    38.5893 O.3   158 HOH   0.0000 
473 H1      -2.9409     4.6307    38.5893 H     158 HOH   0.0000 
474 H2      -4.1912     5.2778    39.2364 H     158 HOH   0.0000 
475 O       23.8173    18.3059    41.3158 O.3   159 HOH   0.0000 
476 H1      24.7773    18.3059    41.3158 H     159 HOH   0.0000 
477 H2      23.5270    18.9529    41.9628 H     159 HOH   0.0000 
478 O      -14.3581    32.6580    25.2195 O.3   160 HOH   0.0000 
479 H1     -13.3981    32.6580    25.2195 H     160 HOH   0.0000 
480 H2     -14.6484    33.3050    25.8665 H     160 HOH   0.0000 
481 O      -23.7719    12.9953    35.3819 O.3   161 HOH   0.0000 
482 H1     -22.8119    12.9953    35.3819 H     161 HOH   0.0000 
483 H2     -24.0621    13.6423    36.0290 H     161 HOH   0.0000 
484 O      -19.1169    -1.3124    26.5400 O.3   162 HOH   0.0000 
485 H1     -18.1569    -1.3124    26.5400 H     162 HOH   0.0000 
486 H2     -19.4072    -0.6654    27.1871 H     162 HOH   0.0000 
487 O        8.5703    33.0781    26.5758 O.3   163 HOH   0.0000 
488 H1       9.5303    33.0781    26.5758 H     163 HOH   0.0000 
489 H2       8.2800    33.7251    27.2229 H     163 HOH   0.0000 
490 O        8.0055    25.4903    22.8903 O.3   164 HOH   0.0000 
491 H1       8.9655    25.4903    22.8903 H     164 HOH   0.0000 
492 H2       7.7152    26.1373    23.5373 H     164 HOH   0.0000 
493 O      -20.9137    13.8006    17.9893 O.3   165 HOH   0.0000 
494 H1     -19.9537    13.8006    17.9893 H     165 HOH   0.0000 
495 H2     -21.2039    14.4477    18.6364 H     165 HOH   0.0000 
496 O      -17.6579    -2.3709    28.9273 O.3   166 HOH   0.0000 
497 H1     -16.6979    -2.3709    28.9273 H     166 HOH   0.0000 
498 H2     -17.9481    -1.7239    29.5744 H     166 HOH   0.0000 
499 O       -3.3841    17.4875    47.7614 O.3   167 HOH  -0.8340 
500 H1      -4.2687    17.4174    48.1202 H     167 HOH   0.4170 
501 H2      -3.3995    18.2901    47.2400 H     167 HOH   0.4170 
502 O       18.0829    28.0900    24.4372 O.3   168 HOH   0.0000 
503 H1      19.0429    28.0900    24.4372 H     168 HOH   0.0000 
504 H2      17.7926    28.7371    25.0843 H     168 HOH   0.0000 
505 O      -24.7374     3.1830    26.7140 O.3   169 HOH   0.0000 
506 H1     -23.7774     3.1830    26.7140 H     169 HOH   0.0000 
507 H2     -25.0277     3.8300    27.3610 H     169 HOH   0.0000 
508 O      -26.6940    18.0645    30.3900 O.3   170 HOH   0.0000 
509 H1     -25.7340    18.0645    30.3900 H     170 HOH   0.0000 
510 H2     -26.9843    18.7116    31.0370 H     170 HOH   0.0000 
511 O      -22.2351    10.9331    33.6172 O.3   171 HOH   0.0000 
512 H1     -21.2751    10.9331    33.6172 H     171 HOH   0.0000 
513 H2     -22.5254    11.5801    34.2642 H     171 HOH   0.0000 
514 O       -9.6379    -0.1639    31.4532 O.3   172 HOH   0.0000 
515 H1      -8.6779    -0.1639    31.4532 H     172 HOH   0.0000 
516 H2      -9.9282     0.4832    32.1002 H     172 HOH   0.0000 
517 O       25.0352    31.8179    39.7789 O.3   173 HOH   0.0000 
518 H1      25.9952    31.8179    39.7789 H     173 HOH   0.0000 
519 H2      24.7449    32.4650    40.4260 H     173 HOH   0.0000 
520 O        4.5393    33.6686    39.9411 O.3   174 HOH   0.0000 
521 H1       5.4993    33.6686    39.9411 H     174 HOH   0.0000 
522 H2       4.2491    34.3157    40.5882 H     174 HOH   0.0000 
523 O        7.7774    28.4644    21.6740 O.3   175 HOH   0.0000 
524 H1       8.7374    28.4644    21.6740 H     175 HOH   0.0000 
525 H2       7.4871    29.1115    22.3210 H     175 HOH   0.0000 
526 O       10.5422     5.6013    16.6270 O.3   176 HOH   0.0000 
527 H1      11.5022     5.6013    16.6270 H     176 HOH   0.0000 
528 H2      10.2519     6.2484    17.2741 H     176 HOH   0.0000 
529 O      -16.1771    28.6191    32.4169 O.3   177 HOH   0.0000 
530 H1     -15.2171    28.6191    32.4169 H     177 HOH   0.0000 
531 H2     -16.4673    29.2662    33.0639 H     177 HOH   0.0000 
532 O       -8.0400    -3.8352     7.2991 O.3   178 HOH   0.0000 
533 H1      -7.0800    -3.8352     7.2991 H     178 HOH   0.0000 
534 H2      -8.3303    -3.1882     7.9461 H     178 HOH   0.0000 
535 O       12.6796    12.7010    27.8513 O.3   179 HOH   0.0000 
536 H1      13.6396    12.7010    27.8513 H     179 HOH   0.0000 
537 H2      12.3893    13.3480    28.4983 H     179 HOH   0.0000 
538 O       -3.7092    35.7547    23.7281 O.3   180 HOH   0.0000 
539 H1      -2.7492    35.7547    23.7281 H     180 HOH   0.0000 
540 H2      -3.9995    36.4017    24.3751 H     180 HOH   0.0000 
541 O      -18.4765     4.0908    38.2198 O.3   181 HOH   0.0000 
542 H1     -17.5165     4.0908    38.2198 H     181 HOH   0.0000 
543 H2     -18.7668     4.7378    38.8668 H     181 HOH   0.0000 
544 O        6.7749     8.3873    50.9925 O.3   182 HOH   0.0000 
545 H1       7.7349     8.3873    50.9925 H     182 HOH   0.0000 
546 H2       6.4846     9.0344    51.6395 H     182 HOH   0.0000 
547 O      -16.8400     5.5932    14.8590 O.3   183 HOH   0.0000 
548 H1     -15.8800     5.5932    14.8590 H     183 HOH   0.0000 
549 H2     -17.1303     6.2402    15.5061 H     183 HOH   0.0000 
550 O      -28.1500    14.6415    33.6318 O.3   184 HOH   0.0000 
551 H1     -27.1900    14.6415    33.6318 H     184 HOH   0.0000 
552 H2     -28.4403    15.2885    34.2788 H     184 HOH   0.0000 
553 O       -6.4162     3.9490    37.1777 O.3   185 HOH   0.0000 
554 H1      -5.4562     3.9490    37.1777 H     185 HOH   0.0000 
555 H2      -6.7065     4.5961    37.8248 H     185 HOH   0.0000 
556 O       24.4392    29.8655    29.7890 O.3   186 HOH   0.0000 
557 H1      25.3992    29.8655    29.7890 H     186 HOH   0.0000 
558 H2      24.1489    30.5125    30.4360 H     186 HOH   0.0000 
559 O        2.3480     6.9125    38.5617 O.3   187 HOH  -0.8340 
560 H1       3.0136     6.2314    38.6582 H     187 HOH   0.4170 
561 H2       2.7884     7.7183    38.8320 H     187 HOH   0.4170 
562 O        3.4240    10.9708    27.5682 O.3   188 HOH   0.0000 
563 H1       4.3840    10.9708    27.5682 H     188 HOH   0.0000 
564 H2       3.1337    11.6179    28.2152 H     188 HOH   0.0000 
565 O        7.6857    33.0505    41.2601 O.3   189 HOH   0.0000 
566 H1       8.6457    33.0505    41.2601 H     189 HOH   0.0000 
567 H2       7.3954    33.6975    41.9071 H     189 HOH   0.0000 
568 O       10.5688    29.0546    22.6669 O.3   190 HOH   0.0000 
569 H1      11.5288    29.0546    22.6669 H     190 HOH   0.0000 
570 H2      10.2786    29.7017    23.3140 H     190 HOH   0.0000 
571 O       11.9955    36.8680    30.8940 O.3   191 HOH   0.0000 
572 H1      12.9555    36.8680    30.8940 H     191 HOH   0.0000 
573 H2      11.7052    37.5151    31.5411 H     191 HOH   0.0000 
574 O      -13.2805    12.2746    46.6735 O.3   192 HOH   0.0000 
575 H1     -12.3205    12.2746    46.6735 H     192 HOH   0.0000 
576 H2     -13.5708    12.9216    47.3206 H     192 HOH   0.0000 
577 O       20.8121    30.9463    25.1429 O.3   193 HOH   0.0000 
578 H1      21.7721    30.9463    25.1429 H     193 HOH   0.0000 
579 H2      20.5219    31.5934    25.7900 H     193 HOH   0.0000 
580 O      -14.4565    32.3656    28.2670 O.3   194 HOH   0.0000 
581 H1     -13.4965    32.3656    28.2670 H     194 HOH   0.0000 
582 H2     -14.7468    33.0127    28.9140 H     194 HOH   0.0000 
583 O       -5.1672    11.2161    10.6188 O.3   195 HOH   0.0000 
584 H1      -4.2072    11.2161    10.6188 H     195 HOH   0.0000 
585 H2      -5.4575    11.8632    11.2659 H     195 HOH   0.0000 
586 O      -18.0085    -0.3334    31.1388 O.3   196 HOH   0.0000 
587 H1     -17.0485    -0.3334    31.1388 H     196 HOH   0.0000 
588 H2     -18.2988     0.3137    31.7859 H     196 HOH   0.0000 
589 O       23.6768    18.3689    44.4528 O.3   197 HOH   0.0000 
590 H1      24.6368    18.3689    44.4528 H     197 HOH   0.0000 
591 H2      23.3865    19.0160    45.0998 H     197 HOH   0.0000 
592 O        5.3134    34.9259    36.2004 O.3   198 HOH   0.0000 
593 H1       6.2734    34.9259    36.2004 H     198 HOH   0.0000 
594 H2       5.0231    35.5730    36.8475 H     198 HOH   0.0000 
595 O       -3.4915     6.2339    10.6409 O.3   199 HOH   0.0000 
596 H1      -2.5315     6.2339    10.6409 H     199 HOH   0.0000 
597 H2      -3.7817     6.8809    11.2879 H     199 HOH   0.0000 
598 O      -27.4611    18.3106    35.5169 O.3   200 HOH   0.0000 
599 H1     -26.5011    18.3106    35.5169 H     200 HOH   0.0000 
600 H2     -27.7514    18.9577    36.1640 H     200 HOH   0.0000 
601 O      -16.7652    17.8701    12.2270 O.3   201 HOH   0.0000 
602 H1     -15.8052    17.8701    12.2270 H     201 HOH   0.0000 
603 H2     -17.0555    18.5172    12.8741 H     201 HOH   0.0000 
604 O       23.9004    15.1074    40.7218 O.3   202 HOH   0.0000 
605 H1      24.8604    15.1074    40.7218 H     202 HOH   0.0000 
606 H2      23.6101    15.7545    41.3689 H     202 HOH   0.0000 
607 O       -7.8350    30.4887    19.8675 O.3   203 HOH   0.0000 
608 H1      -6.8750    30.4887    19.8675 H     203 HOH   0.0000 
609 H2      -8.1253    31.1357    20.5145 H     203 HOH   0.0000 
610 O      -14.7072    13.8747    48.6110 O.3   204 HOH   0.0000 
611 H1     -13.7472    13.8747    48.6110 H     204 HOH   0.0000 
612 H2     -14.9975    14.5218    49.2581 H     204 HOH   0.0000 
613 O       19.8199    29.4302    40.4863 O.3   205 HOH   0.0000 
614 H1      20.7799    29.4302    40.4863 H     205 HOH   0.0000 
615 H2      19.5296    30.0772    41.1334 H     205 HOH   0.0000 
616 O       -5.7749     2.0539    39.7410 O.3   206 HOH   0.0000 
617 H1      -4.8149     2.0539    39.7410 H     206 HOH   0.0000 
618 H2      -6.0652     2.7010    40.3880 H     206 HOH   0.0000 
619 O       -0.3613    29.2317    45.3386 O.3   207 HOH   0.0000 
620 H1       0.5987    29.2317    45.3386 H     207 HOH   0.0000 
621 H2      -0.6516    29.8788    45.9857 H     207 HOH   0.0000 
622 O        0.7540    10.2847    48.8433 O.3   208 HOH   0.0000 
623 H1       1.7140    10.2847    48.8433 H     208 HOH   0.0000 
624 H2       0.4637    10.9318    49.4904 H     208 HOH   0.0000 
625 O       -6.0997    23.5714    16.6240 O.3   209 HOH   0.0000 
626 H1      -5.1397    23.5714    16.6240 H     209 HOH   0.0000 
627 H2      -6.3900    24.2185    17.2710 H     209 HOH   0.0000 
@<TRIPOS>BOND
  1   1   2  1   
  2   1   3  1   
  3   4   5  1   
  4   4   6  1   
  5   7   8  1   
  6   7   9  1   
  7  10  11  1   
  8  10  12  1   
  9  13  14  1   
 10  13  15  1   
 11  16  17  1   
 12  16  18  1   
 13  19  20  1   
 14  19  21  1   
 15  22  23  1   
 16  22  24  1   
 17  25  26  1   
 18  25  27  1   
 19  28  29  1   
 20  28  30  1   
 21  31  32  1   
 22  31  33  1   
 23  34  35  1   
 24  34  36  1   
 25  37  38  1   
 26  37  39  1   
 27  40  41  1   
 28  40  42  1   
 29  43  44  1   
 30  43  45  1   
 31  46  47  1   
 32  46  48  1   
 33  49  50  1   
 34  49  51  1   
 35  52  53  1   
 36  52  54  1   
 37  55  56  1   
 38  55  57  1   
 39  58  59  1   
 40  58  60  1   
 41  61  62  1   
 42  61  63  1   
 43  64  65  1   
 44  64  66  1   
 45  67  68  1   
 46  67  69  1   
 47  70  71  1   
 48  70  72  1   
 49  73  74  1   
 50  73  75  1   
 51  76  77  1   
 52  76  78  1   
 53  79  80  1   
 54  79  81  1   
 55  82  83  1   
 56  82  84  1   
 57  85  86  1   
 58  85  87  1   
 59  88  89  1   
 60  88  90  1   
 61  91  92  1   
 62  91  93  1   
 63  94  95  1   
 64  94  96  1   
 65  97  98  1   
 66  97  99  1   
 67 100 101  1   
 68 100 102  1   
 69 103 104  1   
 70 103 105  1   
 71 106 107  1   
 72 106 108  1   
 73 109 110  1   
 74 109 111  1   
 75 112 113  1   
 76 112 114  1   
 77 115 116  1   
 78 115 117  1   
 79 118 119  1   
 80 118 120  1   
 81 121 122  1   
 82 121 123  1   
 83 124 125  1   
 84 124 126  1   
 85 127 128  1   
 86 127 129  1   
 87 130 131  1   
 88 130 132  1   
 89 133 134  1   
 90 133 135  1   
 91 136 137  1   
 92 136 138  1   
 93 139 140  1   
 94 139 141  1   
 95 142 143  1   
 96 142 144  1   
 97 145 146  1   
 98 145 147  1   
 99 148 149  1   
100 148 150  1   
101 151 152  1   
102 151 153  1   
103 154 155  1   
104 154 156  1   
105 157 158  1   
106 157 159  1   
107 160 161  1   
108 160 162  1   
109 163 164  1   
110 163 165  1   
111 166 167  1   
112 166 168  1   
113 169 170  1   
114 169 171  1   
115 172 173  1   
116 172 174  1   
117 175 176  1   
118 175 177  1   
119 178 179  1   
120 178 180  1   
121 181 182  1   
122 181 183  1   
123 184 185  1   
124 184 186  1   
125 187 188  1   
126 187 189  1   
127 190 191  1   
128 190 192  1   
129 193 194  1   
130 193 195  1   
131 196 197  1   
132 196 198  1   
133 199 200  1   
134 199 201  1   
135 202 203  1   
136 202 204  1   
137 205 206  1   
138 205 207  1   
139 208 209  1   
140 208 210  1   
141 211 212  1   
142 211 213  1   
143 214 215  1   
144 214 216  1   
145 217 218  1   
146 217 219  1   
147 220 221  1   
148 220 222  1   
149 223 224  1   
150 223 225  1   
151 226 227  1   
152 226 228  1   
153 229 230  1   
154 229 231  1   
155 232 233  1   
156 232 234  1   
157 235 236  1   
158 235 237  1   
159 238 239  1   
160 238 240  1   
161 241 242  1   
162 241 243  1   
163 244 245  1   
164 244 246  1   
165 247 248  1   
166 247 249  1   
167 250 251  1   
168 250 252  1   
169 253 254  1   
170 253 255  1   
171 256 257  1   
172 256 258  1   
173 259 260  1   
174 259 261  1   
175 262 263  1   
176 262 264  1   
177 265 266  1   
178 265 267  1   
179 268 269  1   
180 268 270  1   
181 271 272  1   
182 271 273  1   
183 274 275  1   
184 274 276  1   
185 277 278  1   
186 277 279  1   
187 280 281  1   
188 280 282  1   
189 283 284  1   
190 283 285  1   
191 286 287  1   
192 286 288  1   
193 289 290  1   
194 289 291  1   
195 292 293  1   
196 292 294  1   
197 295 296  1   
198 295 297  1   
199 298 299  1   
200 298 300  1   
201 301 302  1   
202 301 303  1   
203 304 305  1   
204 304 306  1   
205 307 308  1   
206 307 309  1   
207 310 311  1   
208 310 312  1   
209 313 314  1   
210 313 315  1   
211 316 317  1   
212 316 318  1   
213 319 320  1   
214 319 321  1   
215 322 323  1   
216 322 324  1   
217 325 326  1   
218 325 327  1   
219 328 329  1   
220 328 330  1   
221 331 332  1   
222 331 333  1   
223 334 335  1   
224 334 336  1   
225 337 338  1   
226 337 339  1   
227 340 341  1   
228 340 342  1   
229 343 344  1   
230 343 345  1   
231 346 347  1   
232 346 348  1   
233 349 350  1   
234 349 351  1   
235 352 353  1   
236 352 354  1   
237 355 356  1   
238 355 357  1   
239 358 359  1   
240 358 360  1   
241 361 362  1   
242 361 363  1   
243 364 365  1   
244 364 366  1   
245 367 368  1   
246 367 369  1   
247 370 371  1   
248 370 372  1   
249 373 374  1   
250 373 375  1   
251 376 377  1   
252 376 378  1   
253 379 380  1   
254 379 381  1   
255 382 383  1   
256 382 384  1   
257 385 386  1   
258 385 387  1   
259 388 389  1   
260 388 390  1   
261 391 392  1   
262 391 393  1   
263 394 395  1   
264 394 396  1   
265 397 398  1   
266 397 399  1   
267 400 401  1   
268 400 402  1   
269 403 404  1   
270 403 405  1   
271 406 407  1   
272 406 408  1   
273 409 410  1   
274 409 411  1   
275 412 413  1   
276 412 414  1   
277 415 416  1   
278 415 417  1   
279 418 419  1   
280 418 420  1   
281 421 422  1   
282 421 423  1   
283 424 425  1   
284 424 426  1   
285 427 428  1   
286 427 429  1   
287 430 431  1   
288 430 432  1   
289 433 434  1   
290 433 435  1   
291 436 437  1   
292 436 438  1   
293 439 440  1   
294 439 441  1   
295 442 443  1   
296 442 444  1   
297 445 446  1   
298 445 447  1   
299 448 449  1   
300 448 450  1   
301 451 452  1   
302 451 453  1   
303 454 455  1   
304 454 456  1   
305 457 458  1   
306 457 459  1   
307 460 461  1   
308 460 462  1   
309 463 464  1   
310 463 465  1   
311 466 467  1   
312 466 468  1   
313 469 470  1   
314 469 471  1   
315 472 473  1   
316 472 474  1   
317 475 476  1   
318 475 477  1   
319 478 479  1   
320 478 480  1   
321 481 482  1   
322 481 483  1   
323 484 485  1   
324 484 486  1   
325 487 488  1   
326 487 489  1   
327 490 491  1   
328 490 492  1   
329 493 494  1   
330 493 495  1   
331 496 497  1   
332 496 498  1   
333 499 500  1   
334 499 501  1   
335 502 503  1   
336 502 504  1   
337 505 506  1   
338 505 507  1   
339 508 509  1   
340 508 510  1   
341 511 512  1   
342 511 513  1   
343 514 515  1   
344 514 516  1   
345 517 518  1   
346 517 519  1   
347 520 521  1   
348 520 522  1   
349 523 524  1   
350 523 525  1   
351 526 527  1   
352 526 528  1   
353 529 530  1   
354 529 531  1   
355 532 533  1   
356 532 534  1   
357 535 536  1   
358 535 537  1   
359 538 539  1   
360 538 540  1   
361 541 542  1   
362 541 543  1   
363 544 545  1   
364 544 546  1   
365 547 548  1   
366 547 549  1   
367 550 551  1   
368 550 552  1   
369 553 554  1   
370 553 555  1   
371 556 557  1   
372 556 558  1   
373 559 560  1   
374 559 561  1   
375 562 563  1   
376 562 564  1   
377 565 566  1   
378 565 567  1   
379 568 569  1   
380 568 570  1   
381 571 572  1   
382 571 573  1   
383 574 575  1   
384 574 576  1   
385 577 578  1   
386 577 579  1   
387 580 581  1   
388 580 582  1   
389 583 584  1   
390 583 585  1   
391 586 587  1   
392 586 588  1   
393 589 590  1   
394 589 591  1   
395 592 593  1   
396 592 594  1   
397 595 596  1   
398 595 597  1   
399 598 599  1   
400 598 600  1   
401 601 602  1   
402 601 603  1   
403 604 605  1   
404 604 606  1   
405 607 608  1   
406 607 609  1   
407 610 611  1   
408 610 612  1   
409 613 614  1   
410 613 615  1   
411 616 617  1   
412 616 618  1   
413 619 620  1   
414 619 621  1   
415 622 623  1   
416 622 624  1   
417 625 626  1   
418 625 627  1   
@<TRIPOS>SUBSTRUCTURE
  1 HOH   1 GROUP 4 D **** 0
  2 HOH   4 GROUP 4 D **** 0
  3 HOH   7 GROUP 4 D **** 0
  4 HOH  10 GROUP 4 D **** 0
  5 HOH  13 GROUP 4 D **** 0
  6 HOH  16 GROUP 4 D **** 0
  7 HOH  19 GROUP 4 D **** 0
  8 HOH  22 GROUP 4 D **** 0
  9 HOH  25 GROUP 4 D **** 0
 10 HOH  28 GROUP 4 D **** 0
 11 HOH  31 GROUP 4 D **** 0
 12 HOH  34 GROUP 4 D **** 0
 13 HOH  37 GROUP 4 D **** 0
 14 HOH  40 GROUP 4 D **** 0
 15 HOH  43 GROUP 4 D **** 0
 16 HOH  46 GROUP 4 D **** 0
 17 HOH  49 GROUP 4 D **** 0
 18 HOH  52 GROUP 4 D **** 0
 19 HOH  55 GROUP 4 D **** 0
 20 HOH  58 GROUP 4 D **** 0
 21 HOH  61 GROUP 4 D **** 0
 22 HOH  64 GROUP 4 D **** 0
 23 HOH  67 GROUP 4 D **** 0
 24 HOH  70 GROUP 4 D **** 0
 25 HOH  73 GROUP 4 D **** 0
 26 HOH  76 GROUP 4 D **** 0
 27 HOH  79 GROUP 4 D **** 0
 28 HOH  82 GROUP 4 D **** 0
 29 HOH  85 GROUP 4 D **** 0
 30 HOH  88 GROUP 4 D **** 0
 31 HOH  91 GROUP 4 D **** 0
 32 HOH  94 GROUP 4 D **** 0
 33 HOH  97 GROUP 4 D **** 0
 34 HOH 100 GROUP 4 D **** 0
 35 HOH 103 GROUP 4 D **** 0
 36 HOH 106 GROUP 4 D **** 0
 37 HOH 109 GROUP 4 D **** 0
 38 HOH 112 GROUP 4 D **** 0
 39 HOH 115 GROUP 4 D **** 0
 40 HOH 118 GROUP 4 D **** 0
 41 HOH 121 GROUP 4 D **** 0
 42 HOH 124 GROUP 4 D **** 0
 43 HOH 127 GROUP 4 D **** 0
 44 HOH 130 GROUP 4 D **** 0
 45 HOH 133 GROUP 4 D **** 0
 46 HOH 136 GROUP 4 D **** 0
 47 HOH 139 GROUP 4 D **** 0
 48 HOH 142 GROUP 4 D **** 0
 49 HOH 145 GROUP 4 D **** 0
 50 HOH 148 GROUP 4 D **** 0
 51 HOH 151 GROUP 4 D **** 0
 52 HOH 154 GROUP 4 D **** 0
 53 HOH 157 GROUP 4 D **** 0
 54 HOH 160 GROUP 4 D **** 0
 55 HOH 163 GROUP 4 D **** 0
 56 HOH 166 GROUP 4 D **** 0
 57 HOH 169 GROUP 4 D **** 0
 58 HOH 172 GROUP 4 D **** 0
 59 HOH 175 GROUP 4 D **** 0
 60 HOH 178 GROUP 4 D **** 0
 61 HOH 181 GROUP 4 D **** 0
 62 HOH 184 GROUP 4 D **** 0
 63 HOH 187 GROUP 4 D **** 0
 64 HOH 190 GROUP 4 D **** 0
 65 HOH 193 GROUP 4 D **** 0
 66 HOH 196 GROUP 4 D **** 0
 67 HOH 199 GROUP 4 D **** 0
 68 HOH 202 GROUP 4 D **** 0
 69 HOH 205 GROUP 4 D **** 0
 70 HOH 208 GROUP 4 D **** 0
 71 HOH 211 GROUP 4 D **** 0
 72 HOH 214 GROUP 4 D **** 0
 73 HOH 217 GROUP 4 D **** 0
 74 HOH 220 GROUP 4 D **** 0
 75 HOH 223 GROUP 4 D **** 0
 76 HOH 226 GROUP 4 D **** 0
 77 HOH 229 GROUP 4 D **** 0
 78 HOH 232 GROUP 4 D **** 0
 79 HOH 235 GROUP 4 D **** 0
 80 HOH 238 GROUP 4 D **** 0
 81 HOH 241 GROUP 4 D **** 0
 82 HOH 244 GROUP 4 D **** 0
 83 HOH 247 GROUP 4 D **** 0
 84 HOH 250 GROUP 4 D **** 0
 85 HOH 253 GROUP 4 D **** 0
 86 HOH 256 GROUP 4 D **** 0
 87 HOH 259 GROUP 4 D **** 0
 88 HOH 262 GROUP 4 D **** 0
 89 HOH 265 GROUP 4 D **** 0
 90 HOH 268 GROUP 4 D **** 0
 91 HOH 271 GROUP 4 D **** 0
 92 HOH 274 GROUP 4 D **** 0
 93 HOH 277 GROUP 4 D **** 0
 94 HOH 280 GROUP 4 D **** 0
 95 HOH 283 GROUP 4 D **** 0
 96 HOH 286 GROUP 4 D **** 0
 97 HOH 289 GROUP 4 D **** 0
 98 HOH 292 GROUP 4 D **** 0
 99 HOH 295 GROUP 4 D **** 0
100 HOH 298 GROUP 4 D **** 0
101 HOH 301 GROUP 4 D **** 0
102 HOH 304 GROUP 4 D **** 0
103 HOH 307 GROUP 4 D **** 0
104 HOH 310 GROUP 4 D **** 0
105 HOH 313 GROUP 4 D **** 0
106 HOH 316 GROUP 4 D **** 0
107 HOH 319 GROUP 4 D **** 0
108 HOH 322 GROUP 4 D **** 0
109 HOH 325 GROUP 4 D **** 0
110 HOH 328 GROUP 4 D **** 0
111 HOH 331 GROUP 4 D **** 0
112 HOH 334 GROUP 4 D **** 0
113 HOH 337 GROUP 4 D **** 0
114 HOH 340 GROUP 4 D **** 0
115 HOH 343 GROUP 4 D **** 0
116 HOH 346 GROUP 4 D **** 0
117 HOH 349 GROUP 4 D **** 0
118 HOH 352 GROUP 4 D **** 0
119 HOH 355 GROUP 4 D **** 0
120 HOH 358 GROUP 4 D **** 0
121 HOH 361 GROUP 4 D **** 0
122 HOH 364 GROUP 4 D **** 0
123 HOH 367 GROUP 4 D **** 0
124 HOH 370 GROUP 4 D **** 0
125 HOH 373 GROUP 4 D **** 0
126 HOH 376 GROUP 4 D **** 0
127 HOH 379 GROUP 4 D **** 0
128 HOH 382 GROUP 4 D **** 0
129 HOH 385 GROUP 4 D **** 0
130 HOH 388 GROUP 4 D **** 0
131 HOH 391 GROUP 4 D **** 0
132 HOH 394 GROUP 4 D **** 0
133 HOH 397 GROUP 4 D **** 0
134 HOH 400 GROUP 4 D **** 0
135 HOH 403 GROUP 4 D **** 0
136 HOH 406 GROUP 4 D **** 0
137 HOH 409 GROUP 4 D **** 0
138 HOH 412 GROUP 4 D **** 0
139 HOH 415 GROUP 4 D **** 0
140 HOH 418 GROUP 4 D **** 0
141 HOH 421 GROUP 4 D **** 0
142 HOH 424 GROUP 4 D **** 0
143 HOH 427 GROUP 4 D **** 0
144 HOH 430 GROUP 4 D **** 0
145 HOH 433 GROUP 4 D **** 0
146 HOH 436 GROUP 4 D **** 0
147 HOH 439 GROUP 4 D **** 0
148 HOH 442 GROUP 4 D **** 0
149 HOH 445 GROUP 4 D **** 0
150 HOH 448 GROUP 4 D **** 0
151 HOH 451 GROUP 4 D **** 0
152 HOH 454 GROUP 4 D **** 0
153 HOH 457 GROUP 4 D **** 0
154 HOH 460 GROUP 4 D **** 0
155 HOH 463 GROUP 4 D **** 0
156 HOH 466 GROUP 4 D **** 0
157 HOH 469 GROUP 4 D **** 0
158 HOH 472 GROUP 4 D **** 0
159 HOH 475 GROUP 4 D **** 0
160 HOH 478 GROUP 4 D **** 0
161 HOH 481 GROUP 4 D **** 0
162 HOH 484 GROUP 4 D **** 0
163 HOH 487 GROUP 4 D **** 0
164 HOH 490 GROUP 4 D **** 0
165 HOH 493 GROUP 4 D **** 0
166 HOH 496 GROUP 4 D **** 0
167 HOH 499 GROUP 4 D **** 0
168 HOH 502 GROUP 4 D **** 0
169 HOH 505 GROUP 4 D **** 0
170 HOH 508 GROUP 4 D **** 0
171 HOH 511 GROUP 4 D **** 0
172 HOH 514 GROUP 4 D **** 0
173 HOH 517 GROUP 4 D **** 0
174 HOH 520 GROUP 4 D **** 0
175 HOH 523 GROUP 4 D **** 0
176 HOH 526 GROUP 4 D **** 0
177 HOH 529 GROUP 4 D **** 0
178 HOH 532 GROUP 4 D **** 0
179 HOH 535 GROUP 4 D **** 0
180 HOH 538 GROUP 4 D **** 0
181 HOH 541 GROUP 4 D **** 0
182 HOH 544 GROUP 4 D **** 0
183 HOH 547 GROUP 4 D **** 0
184 HOH 550 GROUP 4 D **** 0
185 HOH 553 GROUP 4 D **** 0
186 HOH 556 GROUP 4 D **** 0
187 HOH 559 GROUP 4 D **** 0
188 HOH 562 GROUP 4 D **** 0
189 HOH 565 GROUP 4 D **** 0
190 HOH 568 GROUP 4 D **** 0
191 HOH 571 GROUP 4 D **** 0
192 HOH 574 GROUP 4 D **** 0
193 HOH 577 GROUP 4 D **** 0
194 HOH 580 GROUP 4 D **** 0
195 HOH 583 GROUP 4 D **** 0
196 HOH 586 GROUP 4 D **** 0
197 HOH 589 GROUP 4 D **** 0
198 HOH 592 GROUP 4 D **** 0
199 HOH 595 GROUP 4 D **** 0
200 HOH 598 GROUP 4 D **** 0
201 HOH 601 GROUP 4 D **** 0
202 HOH 604 GROUP 4 D **** 0
203 HOH 607 GROUP 4 D **** 0
204 HOH 610 GROUP 4 D **** 0
205 HOH 613 GROUP 4 D **** 0
206 HOH 616 GROUP 4 D **** 0
207 HOH 619 GROUP 4 D **** 0
208 HOH 622 GROUP 4 D **** 0
209 HOH 625 GROUP 4 D **** 0

# MOE 2012.10 (io_trps.svl 2012.10)
