@<TRIPOS>MOLECULE
5hu9.A
80 84 1 0 0 
SMALL
USER_CHARGES


@<TRIPOS>ATOM
  1 CAX      1.1605     4.1262    10.5705 C.3   1 Q66K   0.1100 
  2 HAX1     1.6397     3.9053    11.5242 H     1 Q66K   0.0800 
  3 HAX2     1.1248     3.2214     9.9636 H     1 Q66K   0.0800 
  4 CAV      1.9630     5.1617     9.8519 C.3   1 Q66K   0.3430 
  5 HAV1     2.9159     4.7215     9.5579 H     1 Q66K   0.0800 
  6 HAV2     2.1420     5.9959    10.5302 H     1 Q66K   0.0800 
  7 NBN      1.2913     5.6700     8.6511 N.4   1 Q66K  -0.9590 
  8 HBN      1.2747     4.8904     8.0093 H     1 Q66K   0.4500 
  9 CAB      2.0065     6.7722     7.9994 C.3   1 Q66K   0.2630 
 10 HAB1     3.0238     6.4578     7.7664 H     1 Q66K   0.0800 
 11 HAB2     2.0362     7.6321     8.6686 H     1 Q66K   0.0800 
 12 HAB3     1.4909     7.0459     7.0789 H     1 Q66K   0.0800 
 13 CAW     -0.0490     6.1052     8.9505 C.3   1 Q66K   0.3430 
 14 HAW1    -0.5422     6.4118     8.0280 H     1 Q66K   0.0800 
 15 HAW2    -0.0079     6.9496     9.6385 H     1 Q66K   0.0800 
 16 CAY     -0.8175     5.0060     9.5725 C.3   1 Q66K   0.1100 
 17 HAY1    -0.8564     4.1619     8.8840 H     1 Q66K   0.0800 
 18 HAY2    -1.8300     5.3508     9.7821 H     1 Q66K   0.0800 
 19 NBO     -0.1895     4.5802    10.8169 N.3   1 Q66K  -0.8100 
 20 CAZ     -0.9813     3.6850    11.6163 C.3   1 Q66K   0.2535 
 21 HAZ1    -0.9985     2.7204    11.1091 H     1 Q66K   0.0800 
 22 HAZ2    -1.9920     4.0908    11.6597 H     1 Q66K   0.0800 
 23 CBJ     -0.5672     3.4653    12.9102 C.ar  1 Q66K  -0.1435 
 24 CBL     -0.5607     2.1937    13.3894 C.ar  1 Q66K  -0.1435 
 25 CBQ     -0.9414     1.1068    12.5548 C.3   1 Q66K   1.1635 
 26 FAF     -1.1541     0.0310    13.3055 F     1 Q66K  -0.3400 
 27 FAG      0.0259     0.8519    11.6795 F     1 Q66K  -0.3400 
 28 FAE     -2.0565     1.4210    11.9041 F     1 Q66K  -0.3400 
 29 CAQ     -0.1565     1.9648    14.7058 C.ar  1 Q66K  -0.1500 
 30 HAQ     -0.1482     0.9505    15.0765 H     1 Q66K   0.1500 
 31 CAN     -0.2053     4.5149    13.7209 C.ar  1 Q66K  -0.1500 
 32 HAN     -0.2390     5.5324    13.3605 H     1 Q66K   0.1500 
 33 CAM      0.2077     4.2274    15.0262 C.ar  1 Q66K  -0.1500 
 34 HAM      0.5258     5.0479    15.6523 H     1 Q66K   0.1500 
 35 CBI      0.2313     2.9786    15.5491 C.ar  1 Q66K   0.0862 
 36 CBD      0.6550     2.6958    16.8653 C.2   1 Q66K   0.5438 
 37 OAC      0.2598     1.6993    17.3926 O.2   1 Q66K  -0.5700 
 38 NBB      1.5323     3.5747    17.4098 N.am  1 Q66K  -0.5470 
 39 HBB      1.7580     4.4012    16.8749 H     1 Q66K   0.3700 
 40 CBG      2.1232     3.4294    18.6055 C.ar  1 Q66K   0.1170 
 41 CAP      3.2178     4.2205    18.9139 C.ar  1 Q66K  -0.1500 
 42 HAP      3.5393     4.9586    18.1940 H     1 Q66K   0.1500 
 43 CAL      1.7584     2.4916    19.5360 C.ar  1 Q66K  -0.1500 
 44 HAL      0.9180     1.8414    19.3426 H     1 Q66K   0.1500 
 45 CAK      2.4606     2.3737    20.7205 C.ar  1 Q66K  -0.1500 
 46 HAK      2.1598     1.6254    21.4388 H     1 Q66K   0.1500 
 47 CBF      3.5315     3.1846    21.0071 C.ar  1 Q66K  -0.1435 
 48 CAA      4.1942     3.0504    22.2345 C.3   1 Q66K  -0.0965 
 49 HAA1     3.7283     2.2533    22.8137 H     1 Q66K   0.0800 
 50 HAA2     4.1283     3.9875    22.7873 H     1 Q66K   0.0800 
 51 HAA3     5.2416     2.8062    22.0572 H     1 Q66K   0.0800 
 52 CBK      3.9183     4.1085    20.1021 C.ar  1 Q66K   0.0825 
 53 OBC      4.9601     4.8754    20.4245 O.3   1 Q66K  -0.3625 
 54 CBM      5.4972     5.7217    19.4970 C.3   1 Q66K   0.2000 
 55 HBM      5.4060     5.2473    18.5199 H     1 Q66K   0.0800 
 56 CAS      6.9942     6.0171    19.8157 C.3   1 Q66K  -0.1600 
 57 HAS1     7.5639     5.0958    19.6945 H     1 Q66K   0.0800 
 58 HAS2     7.0693     6.3574    20.8485 H     1 Q66K   0.0800 
 59 CAU      7.5902     7.0749    18.9146 C.3   1 Q66K   0.1401 
 60 HAU1     7.6018     6.7111    17.8872 H     1 Q66K   0.0800 
 61 HAU2     8.6093     7.2915    19.2349 H     1 Q66K   0.0800 
 62 CAR      4.7806     7.0252    19.5477 C.3   1 Q66K  -0.1600 
 63 HAR1     4.8079     7.4057    20.5688 H     1 Q66K   0.0800 
 64 HAR2     3.7448     6.8728    19.2444 H     1 Q66K   0.0800 
 65 CAT      5.4049     8.0185    18.6468 C.3   1 Q66K   0.1401 
 66 HAT1     4.8485     8.9532    18.7163 H     1 Q66K   0.0800 
 67 HAT2     5.3580     7.6429    17.6247 H     1 Q66K   0.0800 
 68 NBP      6.7996     8.2763    18.9883 N.am  1 Q66K  -0.6602 
 69 CBE      7.2232     9.4180    19.5170 C.2   1 Q66K   0.5438 
 70 OAD      6.5179    10.3692    19.6787 O.2   1 Q66K  -0.5700 
 71 CBH      8.5405     9.6345    19.8613 C.ar  1 Q66K   0.0862 
 72 CAJ      9.5335     9.5460    18.9341 C.ar  1 Q66K  -0.1500 
 73 HAJ      9.2954     9.2494    17.9233 H     1 Q66K   0.1500 
 74 CAH     10.8410     9.8310    19.2714 C.ar  1 Q66K  -0.1500 
 75 HAH     11.6197     9.7509    18.5273 H     1 Q66K   0.1500 
 76 CAI     11.1524    10.2154    20.5488 C.ar  1 Q66K   0.1600 
 77 HAI     12.1750    10.4348    20.8184 H     1 Q66K   0.1500 
 78 NBA     10.1426    10.3199    21.4913 N.ar  1 Q66K  -0.6200 
 79 CAO      8.8422    10.0521    21.1250 C.ar  1 Q66K   0.1600 
 80 HAO      8.0496    10.1743    21.8484 H     1 Q66K   0.1500 
@<TRIPOS>BOND
  1   1   2  1   
  2   1   3  1   
  3   1   4  1   
  4   1  19  1   
  5   4   5  1   
  6   4   6  1   
  7   4   7  1   
  8   7   8  1   
  9   7   9  1   
 10   7  13  1   
 11   9  10  1   
 12   9  11  1   
 13   9  12  1   
 14  13  14  1   
 15  13  15  1   
 16  13  16  1   
 17  16  17  1   
 18  16  18  1   
 19  16  19  1   
 20  19  20  1   
 21  20  21  1   
 22  20  22  1   
 23  20  23  1   
 24  23  24  ar  
 25  23  31  ar  
 26  24  25  1   
 27  24  29  ar  
 28  25  26  1   
 29  25  27  1   
 30  25  28  1   
 31  29  30  1   
 32  29  35  ar  
 33  31  32  1   
 34  31  33  ar  
 35  33  34  1   
 36  33  35  ar  
 37  35  36  1   
 38  36  37  2   
 39  36  38  am  
 40  38  39  1   
 41  38  40  1   
 42  40  41  ar  
 43  40  43  ar  
 44  41  42  1   
 45  41  52  ar  
 46  43  44  1   
 47  43  45  ar  
 48  45  46  1   
 49  45  47  ar  
 50  47  48  1   
 51  47  52  ar  
 52  48  49  1   
 53  48  50  1   
 54  48  51  1   
 55  52  53  1   
 56  53  54  1   
 57  54  55  1   
 58  54  56  1   
 59  54  62  1   
 60  56  57  1   
 61  56  58  1   
 62  56  59  1   
 63  59  60  1   
 64  59  61  1   
 65  59  68  1   
 66  62  63  1   
 67  62  64  1   
 68  62  65  1   
 69  65  66  1   
 70  65  67  1   
 71  65  68  1   
 72  68  69  am  
 73  69  70  2   
 74  69  71  1   
 75  71  72  ar  
 76  71  79  ar  
 77  72  73  1   
 78  72  74  ar  
 79  74  75  1   
 80  74  76  ar  
 81  76  77  1   
 82  76  78  ar  
 83  78  79  ar  
 84  79  80  1   
@<TRIPOS>SUBSTRUCTURE
  1 Q66K  38 GROUP 4 A **** 0

# MOE 2012.10 (io_trps.svl 2012.10)
