@<TRIPOS>MOLECULE
5hu9.A
120 108 12 0 0 
SMALL
USER_CHARGES


@<TRIPOS>ATOM
  1 C1       0.8772    12.5520    37.8057 C.3    1 EDO   0.1200 
  2 H11      1.4908    11.9227    38.4503 H      1 EDO   0.0800 
  3 H12      1.0903    13.6008    38.0125 H      1 EDO   0.0800 
  4 O1      -0.4862    12.2918    38.0556 O.3    1 EDO  -0.6800 
  5 H1      -1.0008    12.8585    37.4764 H      1 EDO   0.4000 
  6 C2       1.1965    12.2473    36.3455 C.3    1 EDO   0.1200 
  7 H21      2.1472    12.7086    36.0782 H      1 EDO   0.0800 
  8 H22      0.4068    12.6483    35.7102 H      1 EDO   0.0800 
  9 O2       1.2843    10.8452    36.1602 O.3    1 EDO  -0.6800 
 10 H2       0.4357    10.4668    36.4017 H      1 EDO   0.4000 
 11 C1      16.8634    41.2903    46.7413 C.3    2 EDO   0.1200 
 12 H11     16.6958    42.3124    47.0809 H      2 EDO   0.0800 
 13 H12     16.7403    41.2421    45.6594 H      2 EDO   0.0800 
 14 O1      15.9382    40.4203    47.3675 O.3    2 EDO  -0.6800 
 15 H1      15.4240    39.9970    46.6761 H      2 EDO   0.4000 
 16 C2      18.2590    40.8500    47.1166 C.3    2 EDO   0.1200 
 17 H21     18.9885    41.5224    46.6651 H      2 EDO   0.0800 
 18 H22     18.4307    39.8347    46.7589 H      2 EDO   0.0800 
 19 O2      18.3888    40.8853    48.5252 O.3    2 EDO  -0.6800 
 20 H2      17.7338    40.2870    48.8922 H      2 EDO   0.4000 
 21 C1      16.1487    21.0625    44.1180 C.3    3 EDO   0.1200 
 22 H11     16.9957    21.5248    44.6250 H      3 EDO   0.0800 
 23 H12     15.2376    21.2531    44.6852 H      3 EDO   0.0800 
 24 O1      16.3639    19.6490    44.0225 O.3    3 EDO  -0.6800 
 25 H1      15.6047    19.2695    43.5741 H      3 EDO   0.4000 
 26 C2      16.0086    21.6578    42.7140 C.3    3 EDO   0.1200 
 27 H21     14.9624    21.9033    42.5316 H      3 EDO   0.0800 
 28 H22     16.3433    20.9255    41.9793 H      3 EDO   0.0800 
 29 O2      16.7988    22.8441    42.5894 O.3    3 EDO  -0.6800 
 30 H2      17.7138    22.6014    42.7487 H      3 EDO   0.4000 
 31 C1       5.9114    38.1127    43.0460 C.3    4 EDO   0.1200 
 32 H11      5.7715    39.1888    43.1487 H      4 EDO   0.0800 
 33 H12      5.5499    37.6120    43.9442 H      4 EDO   0.0800 
 34 O1       7.2846    37.8220    42.8525 O.3    4 EDO  -0.6800 
 35 H1       7.3718    37.3852    42.0021 H      4 EDO   0.4000 
 36 C2       5.1542    37.6087    41.8363 C.3    4 EDO   0.1200 
 37 H21      4.7837    38.4519    41.2532 H      4 EDO   0.0800 
 38 H22      4.3148    36.9909    42.1553 H      4 EDO   0.0800 
 39 O2       6.0463    36.8409    41.0564 O.3    4 EDO  -0.6800 
 40 H2       5.6894    35.9516    40.9982 H      4 EDO   0.4000 
 41 C1     -20.8604     7.1148    41.3437 C.3    5 EDO   0.1200 
 42 H11    -19.8428     7.2030    40.9633 H      5 EDO   0.0800 
 43 H12    -21.2656     8.1091    41.5314 H      5 EDO   0.0800 
 44 O1     -20.8398     6.3862    42.5577 O.3    5 EDO  -0.6800 
 45 H1     -20.2830     6.8663    43.1750 H      5 EDO   0.4000 
 46 C2     -21.7258     6.4113    40.2984 C.3    5 EDO   0.1200 
 47 H21    -22.3197     7.1562    39.7687 H      5 EDO   0.0800 
 48 H22    -22.3895     5.7079    40.8011 H      5 EDO   0.0800 
 49 O2     -20.9267     5.7058    39.3628 O.3    5 EDO  -0.6800 
 50 H2     -21.5181     5.2894    38.7316 H      5 EDO   0.4000 
 51 C1     -24.0179    22.8149    33.9830 C.3    6 EDO   0.1200 
 52 H11    -23.8616    23.1019    32.9431 H      6 EDO   0.0800 
 53 H12    -23.9962    21.7284    34.0672 H      6 EDO   0.0800 
 54 O1     -25.2762    23.3071    34.4337 O.3    6 EDO  -0.6800 
 55 H1     -25.3799    23.0423    35.3506 H      6 EDO   0.4000 
 56 C2     -22.9321    23.4156    34.8470 C.3    6 EDO   0.1200 
 57 H21    -21.9988    22.8758    34.6863 H      6 EDO   0.0800 
 58 H22    -23.2188    23.3412    35.8959 H      6 EDO   0.0800 
 59 O2     -22.7569    24.7740    34.5010 O.3    6 EDO  -0.6800 
 60 H2     -23.5925    25.2220    34.6518 H      6 EDO   0.4000 
 61 C1     -22.2584    17.6724    21.2407 C.3    7 EDO   0.1200 
 62 H11    -21.5106    17.7921    20.4567 H      7 EDO   0.0800 
 63 H12    -23.2482    17.5982    20.7904 H      7 EDO   0.0800 
 64 O1     -22.2220    18.8091    22.0904 O.3    7 EDO  -0.6800 
 65 H1     -22.8930    18.6879    22.7662 H      7 EDO   0.4000 
 66 C2     -21.9662    16.3851    22.0140 C.3    7 EDO   0.1200 
 67 H21    -21.7403    16.6433    23.0486 H      7 EDO   0.0800 
 68 H22    -21.1017    15.8966    21.5644 H      7 EDO   0.0800 
 69 O2     -23.0655    15.4732    21.9998 O.3    7 EDO  -0.6800 
 70 H2     -22.8084    14.7006    22.5083 H      7 EDO   0.4000 
 71 C1      -3.2548    23.0937    15.4836 C.3    8 EDO   0.1200 
 72 H11     -3.5646    22.8199    16.4922 H      8 EDO   0.0800 
 73 H12     -2.8940    24.1223    15.4810 H      8 EDO   0.0800 
 74 O1      -4.3524    22.9722    14.5992 O.3    8 EDO  -0.6800 
 75 H1      -4.1151    22.3272    13.9290 H      8 EDO   0.4000 
 76 C2      -2.1510    22.1656    15.0202 C.3    8 EDO   0.1200 
 77 H21     -1.4923    21.9389    15.8586 H      8 EDO   0.0800 
 78 H22     -1.5786    22.6498    14.2290 H      8 EDO   0.0800 
 79 O2      -2.7169    20.9593    14.5240 O.3    8 EDO  -0.6800 
 80 H2      -2.3752    20.2376    15.0569 H      8 EDO   0.4000 
 81 C1      -9.0368    12.0991    49.4456 C.3    9 EDO   0.1200 
 82 H11     -8.6108    11.9311    50.4347 H      9 EDO   0.0800 
 83 H12     -8.9733    13.1587    49.1978 H      9 EDO   0.0800 
 84 O1     -10.3968    11.7030    49.4509 O.3    9 EDO  -0.6800 
 85 H1     -10.5006    11.0125    48.7921 H      9 EDO   0.4000 
 86 C2      -8.2464    11.2942    48.4151 C.3    9 EDO   0.1200 
 87 H21     -7.6782    10.5138    48.9213 H      9 EDO   0.0800 
 88 H22     -7.5618    11.9557    47.8843 H      9 EDO   0.0800 
 89 O2      -9.1409    10.7041    47.4942 O.3    9 EDO  -0.6800 
 90 H2      -9.6259    11.4132    47.0656 H      9 EDO   0.4000 
 91 C1     -11.6748    15.9770    49.7425 C.3   10 EDO   0.1200 
 92 H11    -11.9275    16.7767    50.4386 H     10 EDO   0.0800 
 93 H12    -10.6992    16.1761    49.2989 H     10 EDO   0.0800 
 94 O1     -12.6462    15.9192    48.7260 O.3   10 EDO  -0.6800 
 95 H1     -13.4928    15.7433    49.1431 H     10 EDO   0.4000 
 96 C2     -11.6274    14.6502    50.4926 C.3   10 EDO   0.1200 
 97 H21    -10.6277    14.5207    50.9073 H     10 EDO   0.0800 
 98 H22    -11.8358    13.8449    49.7883 H     10 EDO   0.0800 
 99 O2     -12.5781    14.5798    51.5615 O.3   10 EDO  -0.6800 
100 H2     -13.4530    14.6792    51.1789 H     10 EDO   0.4000 
101 C1     -35.3044    17.8231    30.0089 C.3   11 EDO   0.1200 
102 H11    -34.4004    18.1151    29.4745 H     11 EDO   0.0800 
103 H12    -35.0668    17.6528    31.0590 H     11 EDO   0.0800 
104 O1     -35.8298    16.6254    29.4385 O.3   11 EDO  -0.6800 
105 H1     -36.0288    16.8059    28.5169 H     11 EDO   0.4000 
106 C2     -36.3420    18.9292    29.8953 C.3   11 EDO   0.1200 
107 H21    -36.3805    19.4770    30.8369 H     11 EDO   0.0800 
108 H22    -37.3158    18.4825    29.6949 H     11 EDO   0.0800 
109 O2     -36.0225    19.8395    28.8410 O.3   11 EDO  -0.6800 
110 H2     -36.7062    20.5131    28.8218 H     11 EDO   0.4000 
111 C1       6.2365    26.2992    56.3044 C.3   12 EDO   0.1200 
112 H11      6.4598    25.8452    57.2698 H     12 EDO   0.0800 
113 H12      7.0348    26.0661    55.5999 H     12 EDO   0.0800 
114 O1       6.1441    27.7079    56.4590 O.3   12 EDO  -0.6800 
115 H1       6.9886    28.0192    56.7930 H     12 EDO   0.4000 
116 C2       4.9233    25.7399    55.7782 C.3   12 EDO   0.1200 
117 H21      5.0688    25.3428    54.7736 H     12 EDO   0.0800 
118 H22      4.1717    26.5289    55.7516 H     12 EDO   0.0800 
119 O2       4.4952    24.6966    56.6508 O.3   12 EDO  -0.6800 
120 H2       3.6657    24.3546    56.3093 H     12 EDO   0.4000 
@<TRIPOS>BOND
  1   1   2  1   
  2   1   3  1   
  3   1   4  1   
  4   1   6  1   
  5   4   5  1   
  6   6   7  1   
  7   6   8  1   
  8   6   9  1   
  9   9  10  1   
 10  11  12  1   
 11  11  13  1   
 12  11  14  1   
 13  11  16  1   
 14  14  15  1   
 15  16  17  1   
 16  16  18  1   
 17  16  19  1   
 18  19  20  1   
 19  21  22  1   
 20  21  23  1   
 21  21  24  1   
 22  21  26  1   
 23  24  25  1   
 24  26  27  1   
 25  26  28  1   
 26  26  29  1   
 27  29  30  1   
 28  31  32  1   
 29  31  33  1   
 30  31  34  1   
 31  31  36  1   
 32  34  35  1   
 33  36  37  1   
 34  36  38  1   
 35  36  39  1   
 36  39  40  1   
 37  41  42  1   
 38  41  43  1   
 39  41  44  1   
 40  41  46  1   
 41  44  45  1   
 42  46  47  1   
 43  46  48  1   
 44  46  49  1   
 45  49  50  1   
 46  51  52  1   
 47  51  53  1   
 48  51  54  1   
 49  51  56  1   
 50  54  55  1   
 51  56  57  1   
 52  56  58  1   
 53  56  59  1   
 54  59  60  1   
 55  61  62  1   
 56  61  63  1   
 57  61  64  1   
 58  61  66  1   
 59  64  65  1   
 60  66  67  1   
 61  66  68  1   
 62  66  69  1   
 63  69  70  1   
 64  71  72  1   
 65  71  73  1   
 66  71  74  1   
 67  71  76  1   
 68  74  75  1   
 69  76  77  1   
 70  76  78  1   
 71  76  79  1   
 72  79  80  1   
 73  81  82  1   
 74  81  83  1   
 75  81  84  1   
 76  81  86  1   
 77  84  85  1   
 78  86  87  1   
 79  86  88  1   
 80  86  89  1   
 81  89  90  1   
 82  91  92  1   
 83  91  93  1   
 84  91  94  1   
 85  91  96  1   
 86  94  95  1   
 87  96  97  1   
 88  96  98  1   
 89  96  99  1   
 90  99 100  1   
 91 101 102  1   
 92 101 103  1   
 93 101 104  1   
 94 101 106  1   
 95 104 105  1   
 96 106 107  1   
 97 106 108  1   
 98 106 109  1   
 99 109 110  1   
100 111 112  1   
101 111 113  1   
102 111 114  1   
103 111 116  1   
104 114 115  1   
105 116 117  1   
106 116 118  1   
107 116 119  1   
108 119 120  1   
@<TRIPOS>SUBSTRUCTURE
  1 EDO   6 GROUP 4 A **** 0
  2 EDO  16 GROUP 4 A **** 0
  3 EDO  26 GROUP 4 A **** 0
  4 EDO  31 GROUP 4 A **** 0
  5 EDO  46 GROUP 4 A **** 0
  6 EDO  56 GROUP 4 A **** 0
  7 EDO  66 GROUP 4 A **** 0
  8 EDO  76 GROUP 4 A **** 0
  9 EDO  81 GROUP 4 A **** 0
 10 EDO  96 GROUP 4 A **** 0
 11 EDO 106 GROUP 4 A **** 0
 12 EDO 111 GROUP 4 A **** 0

# MOE 2012.10 (io_trps.svl 2012.10)
