@<TRIPOS>MOLECULE
5hu9.A
80 84 1 0 0 
SMALL
USER_CHARGES


@<TRIPOS>ATOM
  1 CAX      0.1658    22.8848    27.8213 C.3   1 Q66K   0.1100 
  2 HAX1     0.6170    22.5425    28.7526 H     1 Q66K   0.0800 
  3 HAX2    -0.8302    22.4538    27.7202 H     1 Q66K   0.0800 
  4 CAV      1.0210    22.4018    26.6640 C.3   1 Q66K   0.3430 
  5 HAV1     0.9704    21.3144    26.6088 H     1 Q66K   0.0800 
  6 HAV2     2.0539    22.7096    26.8272 H     1 Q66K   0.0800 
  7 NBN      0.5456    22.9660    25.4184 N.4   1 Q66K  -0.9590 
  8 HBN     -0.4009    22.6529    25.2569 H     1 Q66K   0.4500 
  9 CAB      1.3565    22.4876    24.2996 C.3   1 Q66K   0.2630 
 10 HAB1     1.3578    21.3976    24.2918 H     1 Q66K   0.0800 
 11 HAB2     2.3781    22.8514    24.4096 H     1 Q66K   0.0800 
 12 HAB3     0.9380    22.8571    23.3634 H     1 Q66K   0.0800 
 13 CAW      0.4994    24.3981    25.4899 C.3   1 Q66K   0.3430 
 14 HAW1     0.1150    24.7906    24.5485 H     1 Q66K   0.0800 
 15 HAW2     1.5062    24.7800    25.6587 H     1 Q66K   0.0800 
 16 CAY     -0.3875    24.8458    26.6056 C.3   1 Q66K   0.1100 
 17 HAY1    -1.4066    24.5164    26.4035 H     1 Q66K   0.0800 
 18 HAY2    -0.3623    25.9339    26.6648 H     1 Q66K   0.0800 
 19 NBO      0.0441    24.2946    27.8708 N.3   1 Q66K  -0.8100 
 20 CAZ     -0.7123    24.8504    28.9965 C.3   1 Q66K   0.2535 
 21 HAZ1    -1.7404    24.4969    28.9182 H     1 Q66K   0.0800 
 22 HAZ2    -0.6942    25.9369    28.9102 H     1 Q66K   0.0800 
 23 CBJ     -0.2343    24.5103    30.2670 C.ar  1 Q66K  -0.1435 
 24 CBL     -1.0830    24.2101    31.3196 C.ar  1 Q66K  -0.1435 
 25 CBQ     -2.4976    24.2707    31.1203 C.3   1 Q66K   1.1635 
 26 FAF     -3.1016    24.1521    32.2971 F     1 Q66K  -0.3400 
 27 FAG     -2.8861    23.2828    30.3206 F     1 Q66K  -0.3400 
 28 FAE     -2.8203    25.4377    30.5711 F     1 Q66K  -0.3400 
 29 CAQ     -0.5491    23.8458    32.5458 C.ar  1 Q66K  -0.1500 
 30 HAQ     -1.2350    23.6015    33.3435 H     1 Q66K   0.1500 
 31 CAN      1.1256    24.4541    30.5150 C.ar  1 Q66K  -0.1500 
 32 HAN      1.8134    24.7030    29.7204 H     1 Q66K   0.1500 
 33 CAM      1.6315    24.0887    31.7500 C.ar  1 Q66K  -0.1500 
 34 HAM      2.7029    24.0491    31.8807 H     1 Q66K   0.1500 
 35 CBI      0.8245    23.7744    32.8164 C.ar  1 Q66K   0.0862 
 36 CBD      1.3420    23.4017    34.0827 C.2   1 Q66K   0.5438 
 37 OAC      0.6699    22.7915    34.8569 O.2   1 Q66K  -0.5700 
 38 NBB      2.6416    23.6242    34.3436 N.am  1 Q66K  -0.5470 
 39 HBB      3.2309    23.9797    33.6044 H     1 Q66K   0.3700 
 40 CBG      3.1875    23.3923    35.5490 C.ar  1 Q66K   0.1170 
 41 CAP      2.8344    22.4313    36.4883 C.ar  1 Q66K  -0.1500 
 42 HAP      2.0304    21.7500    36.2521 H     1 Q66K   0.1500 
 43 CAL      4.1862    24.2552    35.9393 C.ar  1 Q66K  -0.1500 
 44 HAL      4.4947    25.0444    35.2696 H     1 Q66K   0.1500 
 45 CAK      4.7964    24.1341    37.1582 C.ar  1 Q66K  -0.1500 
 46 HAK      5.5810    24.8298    37.4166 H     1 Q66K   0.1500 
 47 CBF      4.4565    23.1788    38.0514 C.ar  1 Q66K  -0.1435 
 48 CAA      5.0592    23.0888    39.2569 C.3   1 Q66K  -0.0965 
 49 HAA1     5.8188    23.8658    39.3422 H     1 Q66K   0.0800 
 50 HAA2     5.5280    22.1098    39.3565 H     1 Q66K   0.0800 
 51 HAA3     4.3171    23.2181    40.0447 H     1 Q66K   0.0800 
 52 CBK      3.4704    22.3072    37.7200 C.ar  1 Q66K   0.0825 
 53 OBC      3.2413    21.4095    38.6585 O.3   1 Q66K  -0.3625 
 54 CBM      2.0645    20.6294    38.5970 C.3   1 Q66K   0.2000 
 55 HBM      1.9614    20.3085    37.5604 H     1 Q66K   0.0800 
 56 CAS      0.8439    21.4086    38.9654 C.3   1 Q66K  -0.1600 
 57 HAS1    -0.0342    20.8005    38.7479 H     1 Q66K   0.0800 
 58 HAS2     0.8164    22.3156    38.3615 H     1 Q66K   0.0800 
 59 CAU      0.8072    21.8006    40.4218 C.3   1 Q66K   0.1401 
 60 HAU1    -0.1623    22.2474    40.6423 H     1 Q66K   0.0800 
 61 HAU2     1.5948    22.5302    40.6105 H     1 Q66K   0.0800 
 62 CAR      2.1697    19.4687    39.4646 C.3   1 Q66K  -0.1600 
 63 HAR1     3.1172    18.9674    39.2670 H     1 Q66K   0.0800 
 64 HAR2     1.3463    18.7895    39.2436 H     1 Q66K   0.0800 
 65 CAT      2.1131    19.8405    40.9199 C.3   1 Q66K   0.1401 
 66 HAT1     3.0353    20.3625    41.1754 H     1 Q66K   0.0800 
 67 HAT2     2.0409    18.9233    41.5045 H     1 Q66K   0.0800 
 68 NBP      1.0015    20.6887    41.2704 N.am  1 Q66K  -0.6602 
 69 CBE      0.2127    20.4673    42.3328 C.2   1 Q66K   0.5438 
 70 OAD     -0.6606    21.2404    42.6219 O.2   1 Q66K  -0.5700 
 71 CBH      0.3034    19.2997    43.0858 C.ar  1 Q66K   0.0862 
 72 CAJ      0.2933    18.0675    42.4863 C.ar  1 Q66K  -0.1500 
 73 HAJ      0.2379    18.0384    41.4081 H     1 Q66K   0.1500 
 74 CAH      0.3470    16.8893    43.1379 C.ar  1 Q66K  -0.1500 
 75 HAH      0.3599    15.9623    42.5840 H     1 Q66K   0.1500 
 76 CAI      0.3847    16.8746    44.4900 C.ar  1 Q66K   0.1600 
 77 HAI      0.4374    15.9514    45.0479 H     1 Q66K   0.1500 
 78 NBA      0.3522    18.0972    45.1148 N.ar  1 Q66K  -0.6200 
 79 CAO      0.2978    19.2749    44.4464 C.ar  1 Q66K   0.1600 
 80 HAO      0.2497    20.2019    44.9985 H     1 Q66K   0.1500 
@<TRIPOS>BOND
  1   1   2  1   
  2   1   3  1   
  3   1   4  1   
  4   1  19  1   
  5   4   5  1   
  6   4   6  1   
  7   4   7  1   
  8   7   8  1   
  9   7   9  1   
 10   7  13  1   
 11   9  10  1   
 12   9  11  1   
 13   9  12  1   
 14  13  14  1   
 15  13  15  1   
 16  13  16  1   
 17  16  17  1   
 18  16  18  1   
 19  16  19  1   
 20  19  20  1   
 21  20  21  1   
 22  20  22  1   
 23  20  23  1   
 24  23  24  ar  
 25  23  31  ar  
 26  24  25  1   
 27  24  29  ar  
 28  25  26  1   
 29  25  27  1   
 30  25  28  1   
 31  29  30  1   
 32  29  35  ar  
 33  31  32  1   
 34  31  33  ar  
 35  33  34  1   
 36  33  35  ar  
 37  35  36  1   
 38  36  37  2   
 39  36  38  am  
 40  38  39  1   
 41  38  40  1   
 42  40  41  ar  
 43  40  43  ar  
 44  41  42  1   
 45  41  52  ar  
 46  43  44  1   
 47  43  45  ar  
 48  45  46  1   
 49  45  47  ar  
 50  47  48  1   
 51  47  52  ar  
 52  48  49  1   
 53  48  50  1   
 54  48  51  1   
 55  52  53  1   
 56  53  54  1   
 57  54  55  1   
 58  54  56  1   
 59  54  62  1   
 60  56  57  1   
 61  56  58  1   
 62  56  59  1   
 63  59  60  1   
 64  59  61  1   
 65  59  68  1   
 66  62  63  1   
 67  62  64  1   
 68  62  65  1   
 69  65  66  1   
 70  65  67  1   
 71  65  68  1   
 72  68  69  am  
 73  69  70  2   
 74  69  71  1   
 75  71  72  ar  
 76  71  79  ar  
 77  72  73  1   
 78  72  74  ar  
 79  74  75  1   
 80  74  76  ar  
 81  76  77  1   
 82  76  78  ar  
 83  78  79  ar  
 84  79  80  1   
@<TRIPOS>SUBSTRUCTURE
  1 Q66K  37 GROUP 4 A **** 0

# MOE 2012.10 (io_trps.svl 2012.10)
