@<TRIPOS>MOLECULE
5hu9.A
1095 730 365 0 0 
SMALL
USER_CHARGES


@<TRIPOS>ATOM
   1 O      -18.3621    22.0510    15.6581 O.3     1 HOH   0.0000 
   2 H1     -17.4021    22.0510    15.6581 H       1 HOH   0.0000 
   3 H2     -18.6524    22.6981    16.3051 H       1 HOH   0.0000 
   4 O        8.1818    24.3426    56.3235 O.3     2 HOH  -0.8340 
   5 H1       8.9938    24.7744    56.5888 H       2 HOH   0.4170 
   6 H2       7.7503    24.1159    57.1473 H       2 HOH   0.4170 
   7 O       -0.9718     3.9327    38.2541 O.3     3 HOH   0.0000 
   8 H1      -0.0118     3.9327    38.2541 H       3 HOH   0.0000 
   9 H2      -1.2621     4.5797    38.9012 H       3 HOH   0.0000 
  10 O        3.7111    17.4331    16.8933 O.3     4 HOH   0.0000 
  11 H1       4.6711    17.4331    16.8933 H       4 HOH   0.0000 
  12 H2       3.4208    18.0802    17.5404 H       4 HOH   0.0000 
  13 O      -24.6393    25.0965    35.8363 O.3     5 HOH  -0.8340 
  14 H1     -25.1709    24.7244    35.1327 H       5 HOH   0.4170 
  15 H2     -25.2713    25.5246    36.4139 H       5 HOH   0.4170 
  16 O       -0.5630    -7.5630    21.4555 O.3     6 HOH   0.0000 
  17 H1       0.3970    -7.5630    21.4555 H       6 HOH   0.0000 
  18 H2      -0.8533    -6.9160    22.1025 H       6 HOH   0.0000 
  19 O       19.4899    19.5669    27.7183 O.3     7 HOH   0.0000 
  20 H1      20.4499    19.5669    27.7183 H       7 HOH   0.0000 
  21 H2      19.1996    20.2139    28.3654 H       7 HOH   0.0000 
  22 O      -19.5658     2.8327    48.0268 O.3     8 HOH   0.0000 
  23 H1     -18.6058     2.8327    48.0268 H       8 HOH   0.0000 
  24 H2     -19.8561     3.4797    48.6738 H       8 HOH   0.0000 
  25 O        9.9465    36.7768    47.0230 O.3     9 HOH   0.0000 
  26 H1      10.9065    36.7768    47.0230 H       9 HOH   0.0000 
  27 H2       9.6562    37.4239    47.6700 H       9 HOH   0.0000 
  28 O      -27.6049    23.5450    34.0132 O.3    10 HOH  -0.8340 
  29 H1     -26.6549    23.4743    33.9202 H      10 HOH   0.4170 
  30 H2     -27.9534    23.1860    33.1972 H      10 HOH   0.4170 
  31 O      -22.9694     7.3912    42.9060 O.3    11 HOH  -0.8340 
  32 H1     -23.6774     6.8477    43.2520 H      11 HOH   0.4170 
  33 H2     -22.2434     6.7821    42.7711 H      11 HOH   0.4170 
  34 O       -4.0951    -7.4914    27.9491 O.3    12 HOH   0.0000 
  35 H1      -3.1351    -7.4914    27.9491 H      12 HOH   0.0000 
  36 H2      -4.3853    -6.8444    28.5962 H      12 HOH   0.0000 
  37 O        2.6313    15.6385    23.5154 O.3    13 HOH   0.0000 
  38 H1       3.5913    15.6385    23.5154 H      13 HOH   0.0000 
  39 H2       2.3410    16.2856    24.1624 H      13 HOH   0.0000 
  40 O       -5.1829     7.4198    10.0206 O.3    14 HOH  -0.8340 
  41 H1      -5.8633     8.0203    10.3250 H      14 HOH   0.4170 
  42 H2      -5.0995     6.7753    10.7233 H      14 HOH   0.4170 
  43 O      -11.0448    20.0409    52.0651 O.3    15 HOH  -0.8340 
  44 H1     -10.5784    20.6002    52.6864 H      15 HOH   0.4170 
  45 H2     -10.4355    19.3258    51.8817 H      15 HOH   0.4170 
  46 O      -18.4651     2.4939    42.5393 O.3    16 HOH  -0.8340 
  47 H1     -19.0317     1.7234    42.5006 H      16 HOH   0.4170 
  48 H2     -19.0373     3.2247    42.3051 H      16 HOH   0.4170 
  49 O       15.8969    47.6214    36.2843 O.3    17 HOH   0.0000 
  50 H1      16.8569    47.6214    36.2843 H      17 HOH   0.0000 
  51 H2      15.6066    48.2685    36.9313 H      17 HOH   0.0000 
  52 O        9.2955     7.6882    43.9488 O.3    18 HOH   0.0000 
  53 H1      10.2555     7.6882    43.9488 H      18 HOH   0.0000 
  54 H2       9.0052     8.3352    44.5958 H      18 HOH   0.0000 
  55 O      -15.8290    31.5095    26.9665 O.3    19 HOH   0.0000 
  56 H1     -14.8690    31.5095    26.9665 H      19 HOH   0.0000 
  57 H2     -16.1193    32.1565    27.6136 H      19 HOH   0.0000 
  58 O       -6.9223    -1.0661    10.9469 O.3    20 HOH  -0.8340 
  59 H1      -6.6746    -0.1576    10.7753 H      20 HOH   0.4170 
  60 H2      -7.6835    -1.2172    10.3865 H      20 HOH   0.4170 
  61 O        5.2191    22.6777    52.7115 O.3    21 HOH  -0.8340 
  62 H1       5.2465    22.5457    51.7639 H      21 HOH   0.4170 
  63 H2       4.6312    21.9939    53.0322 H      21 HOH   0.4170 
  64 O        2.1753     6.6867    43.3559 O.3    22 HOH   0.0000 
  65 H1       3.1353     6.6867    43.3559 H      22 HOH   0.0000 
  66 H2       1.8850     7.3338    44.0029 H      22 HOH   0.0000 
  67 O      -16.4153    29.6836    23.9982 O.3    23 HOH   0.0000 
  68 H1     -15.4553    29.6836    23.9982 H      23 HOH   0.0000 
  69 H2     -16.7055    30.3306    24.6452 H      23 HOH   0.0000 
  70 O      -12.4698    -1.2475    26.0477 O.3    24 HOH   0.0000 
  71 H1     -11.5098    -1.2475    26.0477 H      24 HOH   0.0000 
  72 H2     -12.7600    -0.6005    26.6948 H      24 HOH   0.0000 
  73 O      -13.3571     5.0035    13.4639 O.3    25 HOH   0.0000 
  74 H1     -12.3971     5.0035    13.4639 H      25 HOH   0.0000 
  75 H2     -13.6473     5.6506    14.1109 H      25 HOH   0.0000 
  76 O       -9.1370    27.0992    19.4259 O.3    26 HOH   0.0000 
  77 H1      -8.1770    27.0992    19.4259 H      26 HOH   0.0000 
  78 H2      -9.4273    27.7462    20.0730 H      26 HOH   0.0000 
  79 O      -11.5389    -3.6588    27.2564 O.3    27 HOH   0.0000 
  80 H1     -10.5789    -3.6588    27.2564 H      27 HOH   0.0000 
  81 H2     -11.8292    -3.0118    27.9034 H      27 HOH   0.0000 
  82 O      -20.0344     6.3877    36.6170 O.3    28 HOH  -0.8340 
  83 H1     -20.3337     6.0336    37.4545 H      28 HOH   0.4170 
  84 H2     -19.0909     6.2266    36.6117 H      28 HOH   0.4170 
  85 O       16.3355    14.7947    40.2372 O.3    29 HOH  -0.8340 
  86 H1      15.7020    14.9266    39.5318 H      29 HOH   0.4170 
  87 H2      16.1313    15.4794    40.8742 H      29 HOH   0.4170 
  88 O      -14.2429    27.8754    23.1099 O.3    30 HOH   0.0000 
  89 H1     -13.2829    27.8754    23.1099 H      30 HOH   0.0000 
  90 H2     -14.5332    28.5225    23.7569 H      30 HOH   0.0000 
  91 O       -2.2766    27.4599    33.9791 O.3    31 HOH  -0.8340 
  92 H1      -2.7724    28.1948    33.6181 H      31 HOH   0.4170 
  93 H2      -2.4501    27.4924    34.9199 H      31 HOH   0.4170 
  94 O      -15.5926     4.3365     9.5384 O.3    32 HOH   0.0000 
  95 H1     -14.6326     4.3365     9.5384 H      32 HOH   0.0000 
  96 H2     -15.8829     4.9836    10.1854 H      32 HOH   0.0000 
  97 O       -2.9184    -0.9657    16.2691 O.3    33 HOH  -0.8340 
  98 H1      -2.4140    -1.2810    15.5192 H      33 HOH   0.4170 
  99 H2      -2.4898    -1.3591    17.0292 H      33 HOH   0.4170 
 100 O        7.0709    16.8000    35.8100 O.3    34 HOH  -0.8340 
 101 H1       6.8588    16.0739    36.3967 H      34 HOH   0.4170 
 102 H2       6.3126    16.8694    35.2301 H      34 HOH   0.4170 
 103 O       17.4377    23.7754    35.6306 O.3    35 HOH   0.0000 
 104 H1      18.3977    23.7754    35.6306 H      35 HOH   0.0000 
 105 H2      17.1474    24.4224    36.2777 H      35 HOH   0.0000 
 106 O      -23.6993    20.4885    33.3109 O.3    36 HOH  -0.8340 
 107 H1     -23.9115    19.7625    33.8975 H      36 HOH   0.4170 
 108 H2     -24.4577    20.5579    32.7310 H      36 HOH   0.4170 
 109 O       18.4088    33.8796    40.0998 O.3    37 HOH   0.0000 
 110 H1      19.3688    33.8796    40.0998 H      37 HOH   0.0000 
 111 H2      18.1185    34.5266    40.7468 H      37 HOH   0.0000 
 112 O      -18.8548     1.9480    15.3791 O.3    38 HOH   0.0000 
 113 H1     -17.8948     1.9480    15.3791 H      38 HOH   0.0000 
 114 H2     -19.1451     2.5951    16.0262 H      38 HOH   0.0000 
 115 O        5.8648    39.1477    45.3346 O.3    39 HOH  -0.8340 
 116 H1       5.0905    39.6029    45.0037 H      39 HOH   0.4170 
 117 H2       6.5076    39.2239    44.6294 H      39 HOH   0.4170 
 118 O      -12.1460     4.5212    46.6520 O.3    40 HOH   0.0000 
 119 H1     -11.1860     4.5212    46.6520 H      40 HOH   0.0000 
 120 H2     -12.4363     5.1682    47.2990 H      40 HOH   0.0000 
 121 O        3.9418     5.2867    29.0512 O.3    41 HOH   0.0000 
 122 H1       4.9018     5.2867    29.0512 H      41 HOH   0.0000 
 123 H2       3.6515     5.9337    29.6983 H      41 HOH   0.0000 
 124 O        1.0291    18.8464    26.9267 O.3    42 HOH  -0.8340 
 125 H1       1.0515    19.2049    27.8140 H      42 HOH   0.4170 
 126 H2       0.3784    19.3788    26.4691 H      42 HOH   0.4170 
 127 O       19.0702    36.5829    37.2553 O.3    43 HOH   0.0000 
 128 H1      20.0302    36.5829    37.2553 H      43 HOH   0.0000 
 129 H2      18.7799    37.2299    37.9024 H      43 HOH   0.0000 
 130 O        6.6044    23.8835    25.7517 O.3    44 HOH  -0.8340 
 131 H1       7.4845    23.9184    25.3770 H      44 HOH   0.4170 
 132 H2       6.5004    22.9754    26.0360 H      44 HOH   0.4170 
 133 O       -5.7996    13.1162    21.8004 O.3    45 HOH   0.0000 
 134 H1      -4.8396    13.1162    21.8004 H      45 HOH   0.0000 
 135 H2      -6.0899    13.7632    22.4474 H      45 HOH   0.0000 
 136 O        1.4080    12.4100    30.8353 O.3    46 HOH  -0.8340 
 137 H1       1.3517    13.2887    30.4599 H      46 HOH   0.4170 
 138 H2       1.9278    11.9123    30.2041 H      46 HOH   0.4170 
 139 O       -5.7222    16.5631    15.3997 O.3    47 HOH  -0.8340 
 140 H1      -5.8367    16.5805    14.4495 H      47 HOH   0.4170 
 141 H2      -4.8567    16.1754    15.5300 H      47 HOH   0.4170 
 142 O      -15.6770    22.1856    26.9552 O.3    48 HOH   0.0000 
 143 H1     -14.7170    22.1856    26.9552 H      48 HOH   0.0000 
 144 H2     -15.9672    22.8326    27.6022 H      48 HOH   0.0000 
 145 O        1.2730    -3.5910    22.3453 O.3    49 HOH  -0.8340 
 146 H1       1.4430    -4.4036    22.8219 H      49 HOH   0.4170 
 147 H2       0.8845    -3.8749    21.5179 H      49 HOH   0.4170 
 148 O       -1.8505    26.9372    19.4761 O.3    50 HOH  -0.8340 
 149 H1      -2.5623    27.3796    19.9386 H      50 HOH   0.4170 
 150 H2      -1.7982    27.3850    18.6317 H      50 HOH   0.4170 
 151 O        3.9435    11.7885    18.5104 O.3    51 HOH  -0.8340 
 152 H1       4.0216    12.6697    18.1449 H      51 HOH   0.4170 
 153 H2       4.8125    11.4037    18.3969 H      51 HOH   0.4170 
 154 O       14.2514    35.1247    38.5064 O.3    52 HOH   0.0000 
 155 H1      15.2114    35.1247    38.5064 H      52 HOH   0.0000 
 156 H2      13.9612    35.7718    39.1535 H      52 HOH   0.0000 
 157 O       21.8151    29.6155    40.3099 O.3    53 HOH   0.0000 
 158 H1      22.7751    29.6155    40.3099 H      53 HOH   0.0000 
 159 H2      21.5248    30.2625    40.9570 H      53 HOH   0.0000 
 160 O      -16.8055    28.2191    30.8058 O.3    54 HOH   0.0000 
 161 H1     -15.8455    28.2191    30.8058 H      54 HOH   0.0000 
 162 H2     -17.0958    28.8662    31.4529 H      54 HOH   0.0000 
 163 O      -10.3455     2.3734    43.4012 O.3    55 HOH   0.0000 
 164 H1      -9.3855     2.3734    43.4012 H      55 HOH   0.0000 
 165 H2     -10.6358     3.0205    44.0483 H      55 HOH   0.0000 
 166 O      -12.7836     5.0595    44.3870 O.3    56 HOH   0.0000 
 167 H1     -11.8236     5.0595    44.3870 H      56 HOH   0.0000 
 168 H2     -13.0739     5.7066    45.0340 H      56 HOH   0.0000 
 169 O        2.5562     8.1389    16.5453 O.3    57 HOH  -0.8340 
 170 H1       1.9227     8.2708    15.8399 H      57 HOH   0.4170 
 171 H2       2.3520     8.8235    17.1823 H      57 HOH   0.4170 
 172 O       -2.0188     0.8579    18.5907 O.3    58 HOH  -0.8340 
 173 H1      -1.2722     1.1493    18.0673 H      58 HOH   0.4170 
 174 H2      -1.7246     0.9443    19.4974 H      58 HOH   0.4170 
 175 O        6.7264    20.2338    31.6424 O.3    59 HOH  -0.8340 
 176 H1       6.6701    21.1126    31.2671 H      59 HOH   0.4170 
 177 H2       7.2462    19.7362    31.0113 H      59 HOH   0.4170 
 178 O      -12.5845     4.0873    10.1061 O.3    60 HOH   0.0000 
 179 H1     -11.6245     4.0873    10.1061 H      60 HOH   0.0000 
 180 H2     -12.8748     4.7344    10.7531 H      60 HOH   0.0000 
 181 O        2.7391    16.2059    29.2842 O.3    61 HOH   0.0000 
 182 H1       3.6991    16.2059    29.2842 H      61 HOH   0.0000 
 183 H2       2.4488    16.8530    29.9313 H      61 HOH   0.0000 
 184 O       -4.0019    17.0046    21.5410 O.3    62 HOH   0.0000 
 185 H1      -3.0419    17.0046    21.5410 H      62 HOH   0.0000 
 186 H2      -4.2922    17.6516    22.1881 H      62 HOH   0.0000 
 187 O       -4.1869    33.5335    22.6282 O.3    63 HOH   0.0000 
 188 H1      -3.2269    33.5335    22.6282 H      63 HOH   0.0000 
 189 H2      -4.4772    34.1805    23.2753 H      63 HOH   0.0000 
 190 O       16.2327    33.1407    37.3189 O.3    64 HOH   0.0000 
 191 H1      17.1927    33.1407    37.3189 H      64 HOH   0.0000 
 192 H2      15.9424    33.7877    37.9660 H      64 HOH   0.0000 
 193 O        0.6668    13.4530    24.7153 O.3    65 HOH   0.0000 
 194 H1       1.6268    13.4530    24.7153 H      65 HOH   0.0000 
 195 H2       0.3765    14.1000    25.3623 H      65 HOH   0.0000 
 196 O      -18.5978     0.2063    22.2230 O.3    66 HOH   0.0000 
 197 H1     -17.6378     0.2063    22.2230 H      66 HOH   0.0000 
 198 H2     -18.8880     0.8533    22.8701 H      66 HOH   0.0000 
 199 O       11.7026    36.3451    31.9834 O.3    67 HOH   0.0000 
 200 H1      12.6626    36.3451    31.9834 H      67 HOH   0.0000 
 201 H2      11.4124    36.9921    32.6304 H      67 HOH   0.0000 
 202 O       13.2596    18.2259    26.3846 O.3    68 HOH   0.0000 
 203 H1      14.2196    18.2259    26.3846 H      68 HOH   0.0000 
 204 H2      12.9694    18.8729    27.0316 H      68 HOH   0.0000 
 205 O        0.8212     8.9590    41.2244 O.3    69 HOH  -0.8340 
 206 H1       1.2619     8.2888    41.7467 H      69 HOH   0.4170 
 207 H2      -0.1035     8.8746    41.4565 H      69 HOH   0.4170 
 208 O       -8.2427     6.7091    22.6892 O.3    70 HOH   0.0000 
 209 H1      -7.2827     6.7091    22.6892 H      70 HOH   0.0000 
 210 H2      -8.5330     7.3561    23.3363 H      70 HOH   0.0000 
 211 O      -25.3338     2.0958    33.9462 O.3    71 HOH   0.0000 
 212 H1     -24.3738     2.0958    33.9462 H      71 HOH   0.0000 
 213 H2     -25.6241     2.7429    34.5932 H      71 HOH   0.0000 
 214 O      -10.7563    33.4758    32.7700 O.3    72 HOH   0.0000 
 215 H1      -9.7963    33.4758    32.7700 H      72 HOH   0.0000 
 216 H2     -11.0465    34.1229    33.4170 H      72 HOH   0.0000 
 217 O        8.3361    13.2418    41.1155 O.3    73 HOH   0.0000 
 218 H1       9.2961    13.2418    41.1155 H      73 HOH   0.0000 
 219 H2       8.0458    13.8889    41.7625 H      73 HOH   0.0000 
 220 O      -20.1801    27.3678    25.4587 O.3    74 HOH   0.0000 
 221 H1     -19.2201    27.3678    25.4587 H      74 HOH   0.0000 
 222 H2     -20.4704    28.0148    26.1058 H      74 HOH   0.0000 
 223 O       -4.7715     9.7715    33.4328 O.3    75 HOH   0.0000 
 224 H1      -3.8115     9.7715    33.4328 H      75 HOH   0.0000 
 225 H2      -5.0618    10.4185    34.0799 H      75 HOH   0.0000 
 226 O       21.9178    33.2320    32.2644 O.3    76 HOH   0.0000 
 227 H1      22.8778    33.2320    32.2644 H      76 HOH   0.0000 
 228 H2      21.6276    33.8791    32.9115 H      76 HOH   0.0000 
 229 O       -3.0460    12.4989    27.0238 O.3    77 HOH   0.0000 
 230 H1      -2.0860    12.4989    27.0238 H      77 HOH   0.0000 
 231 H2      -3.3363    13.1460    27.6708 H      77 HOH   0.0000 
 232 O       -2.0437    18.4368    50.8232 O.3    78 HOH   0.0000 
 233 H1      -1.0837    18.4368    50.8232 H      78 HOH   0.0000 
 234 H2      -2.3340    19.0838    51.4703 H      78 HOH   0.0000 
 235 O        8.2088    22.2903    29.1468 O.3    79 HOH   0.0000 
 236 H1       9.1688    22.2903    29.1468 H      79 HOH   0.0000 
 237 H2       7.9185    22.9374    29.7939 H      79 HOH   0.0000 
 238 O      -17.9326    26.2104    18.5322 O.3    80 HOH   0.0000 
 239 H1     -16.9726    26.2104    18.5322 H      80 HOH   0.0000 
 240 H2     -18.2229    26.8575    19.1793 H      80 HOH   0.0000 
 241 O      -15.6700    27.4111    37.0841 O.3    81 HOH   0.0000 
 242 H1     -14.7100    27.4111    37.0841 H      81 HOH   0.0000 
 243 H2     -15.9602    28.0581    37.7311 H      81 HOH   0.0000 
 244 O      -22.8368    10.9767    20.1275 O.3    82 HOH  -0.8340 
 245 H1     -22.4394    11.1051    20.9888 H      82 HOH   0.4170 
 246 H2     -22.1015    10.7610    19.5538 H      82 HOH   0.4170 
 247 O       -3.7929    29.4414    44.7935 O.3    83 HOH   0.0000 
 248 H1      -2.8329    29.4414    44.7935 H      83 HOH   0.0000 
 249 H2      -4.0832    30.0884    45.4405 H      83 HOH   0.0000 
 250 O        7.6769    40.2591    41.0605 O.3    84 HOH  -0.8340 
 251 H1       7.8469    39.4465    41.5371 H      84 HOH   0.4170 
 252 H2       7.2884    39.9752    40.2330 H      84 HOH   0.4170 
 253 O       -8.7922    -0.8282    33.0403 O.3    85 HOH   0.0000 
 254 H1      -7.8322    -0.8282    33.0403 H      85 HOH   0.0000 
 255 H2      -9.0824    -0.1812    33.6873 H      85 HOH   0.0000 
 256 O      -38.3765    20.0616    30.2052 O.3    86 HOH  -0.8340 
 257 H1     -38.0533    20.9517    30.0650 H      86 HOH   0.4170 
 258 H2     -39.3253    20.1314    30.0994 H      86 HOH   0.4170 
 259 O       -7.1760    -5.8311    10.1009 O.3    87 HOH   0.0000 
 260 H1      -6.2160    -5.8311    10.1009 H      87 HOH   0.0000 
 261 H2      -7.4663    -5.1841    10.7479 H      87 HOH   0.0000 
 262 O      -14.8355     1.4988    38.6486 O.3    88 HOH   0.0000 
 263 H1     -13.8755     1.4988    38.6486 H      88 HOH   0.0000 
 264 H2     -15.1258     2.1458    39.2957 H      88 HOH   0.0000 
 265 O        4.8047    16.6813    27.6287 O.3    89 HOH   0.0000 
 266 H1       5.7647    16.6813    27.6287 H      89 HOH   0.0000 
 267 H2       4.5144    17.3284    28.2758 H      89 HOH   0.0000 
 268 O      -18.7583    -0.2019    33.7638 O.3    90 HOH   0.0000 
 269 H1     -17.7983    -0.2019    33.7638 H      90 HOH   0.0000 
 270 H2     -19.0486     0.4452    34.4108 H      90 HOH   0.0000 
 271 O      -13.0920    11.2428    49.4486 O.3    91 HOH  -0.8340 
 272 H1     -13.7894    11.8710    49.6368 H      91 HOH   0.4170 
 273 H2     -12.2832    11.7185    49.6375 H      91 HOH   0.4170 
 274 O      -16.1413     0.6797    29.1154 O.3    92 HOH   0.0000 
 275 H1     -15.1813     0.6797    29.1154 H      92 HOH   0.0000 
 276 H2     -16.4316     1.3267    29.7625 H      92 HOH   0.0000 
 277 O       14.6709    19.5632    47.6183 O.3    93 HOH  -0.8340 
 278 H1      13.7695    19.2835    47.7784 H      93 HOH   0.4170 
 279 H2      14.9092    20.0633    48.3989 H      93 HOH   0.4170 
 280 O      -12.8787    23.0242    18.5160 O.3    94 HOH   0.0000 
 281 H1     -11.9187    23.0242    18.5160 H      94 HOH   0.0000 
 282 H2     -13.1690    23.6712    19.1631 H      94 HOH   0.0000 
 283 O       -3.1289     4.9844    41.4897 O.3    95 HOH   0.0000 
 284 H1      -2.1689     4.9844    41.4897 H      95 HOH   0.0000 
 285 H2      -3.4191     5.6315    42.1368 H      95 HOH   0.0000 
 286 O       -7.2209    29.7403    38.9690 O.3    96 HOH   0.0000 
 287 H1      -6.2609    29.7403    38.9690 H      96 HOH   0.0000 
 288 H2      -7.5111    30.3874    39.6161 H      96 HOH   0.0000 
 289 O       -6.9350    27.0448    44.1831 O.3    97 HOH   0.0000 
 290 H1      -5.9750    27.0448    44.1831 H      97 HOH   0.0000 
 291 H2      -7.2253    27.6919    44.8302 H      97 HOH   0.0000 
 292 O       -8.5383    21.8204    52.7271 O.3    98 HOH   0.0000 
 293 H1      -7.5783    21.8204    52.7271 H      98 HOH   0.0000 
 294 H2      -8.8286    22.4675    53.3741 H      98 HOH   0.0000 
 295 O      -32.7193    17.4023    28.1357 O.3    99 HOH  -0.8340 
 296 H1     -32.9688    16.6968    27.5388 H      99 HOH   0.4170 
 297 H2     -31.8500    17.1541    28.4504 H      99 HOH   0.4170 
 298 O       15.9115    29.1930    49.9308 O.3   100 HOH   0.0000 
 299 H1      16.8715    29.1930    49.9308 H     100 HOH   0.0000 
 300 H2      15.6212    29.8400    50.5779 H     100 HOH   0.0000 
 301 O        4.0119    35.1340    27.7527 O.3   101 HOH   0.0000 
 302 H1       4.9719    35.1340    27.7527 H     101 HOH   0.0000 
 303 H2       3.7216    35.7811    28.3998 H     101 HOH   0.0000 
 304 O        1.3520    23.3934    54.1219 O.3   102 HOH  -0.8340 
 305 H1       1.7897    24.1017    53.6498 H     102 HOH   0.4170 
 306 H2       0.5234    23.7747    54.4122 H     102 HOH   0.4170 
 307 O       -8.5141    10.6065    12.4142 O.3   103 HOH   0.0000 
 308 H1      -7.5541    10.6065    12.4142 H     103 HOH   0.0000 
 309 H2      -8.8043    11.2535    13.0613 H     103 HOH   0.0000 
 310 O       12.5996    22.0613    24.0768 O.3   104 HOH   0.0000 
 311 H1      13.5596    22.0613    24.0768 H     104 HOH   0.0000 
 312 H2      12.3093    22.7083    24.7238 H     104 HOH   0.0000 
 313 O       -5.9480    23.4715    16.8075 O.3   105 HOH  -0.8340 
 314 H1      -5.5679    23.2547    15.9562 H     105 HOH   0.4170 
 315 H2      -6.1057    24.4148    16.7668 H     105 HOH   0.4170 
 316 O      -19.1364    25.6532    34.2865 O.3   106 HOH  -0.8340 
 317 H1     -18.7370    25.5202    35.1461 H     106 HOH   0.4170 
 318 H2     -20.0620    25.8098    34.4736 H     106 HOH   0.4170 
 319 O      -15.2946    24.1593    43.6469 O.3   107 HOH   0.0000 
 320 H1     -14.3346    24.1593    43.6469 H     107 HOH   0.0000 
 321 H2     -15.5848    24.8064    44.2939 H     107 HOH   0.0000 
 322 O        1.0088    37.9094    32.1230 O.3   108 HOH   0.0000 
 323 H1       1.9688    37.9094    32.1230 H     108 HOH   0.0000 
 324 H2       0.7185    38.5565    32.7700 H     108 HOH   0.0000 
 325 O       -5.6965    23.5743    47.2066 O.3   109 HOH   0.0000 
 326 H1      -4.7365    23.5743    47.2066 H     109 HOH   0.0000 
 327 H2      -5.9868    24.2213    47.8536 H     109 HOH   0.0000 
 328 O       -6.8151     5.9534    33.8978 O.3   110 HOH   0.0000 
 329 H1      -5.8551     5.9534    33.8978 H     110 HOH   0.0000 
 330 H2      -7.1054     6.6004    34.5448 H     110 HOH   0.0000 
 331 O      -18.4417     3.3009    36.3346 O.3   111 HOH  -0.8340 
 332 H1     -18.1185     4.1909    36.1944 H     111 HOH   0.4170 
 333 H2     -19.3905     3.3706    36.2288 H     111 HOH   0.4170 
 334 O       13.6525    38.9968    32.3721 O.3   112 HOH   0.0000 
 335 H1      14.6125    38.9968    32.3721 H     112 HOH   0.0000 
 336 H2      13.3623    39.6439    33.0192 H     112 HOH   0.0000 
 337 O        4.2921    19.6555    29.1148 O.3   113 HOH  -0.8340 
 338 H1       4.3784    18.8486    29.6225 H     113 HOH   0.4170 
 339 H2       3.3583    19.8627    29.1506 H     113 HOH   0.4170 
 340 O      -18.3129     4.1581    49.8057 O.3   114 HOH   0.0000 
 341 H1     -17.3529     4.1581    49.8057 H     114 HOH   0.0000 
 342 H2     -18.6031     4.8052    50.4528 H     114 HOH   0.0000 
 343 O      -12.4569    18.7584    47.6098 O.3   115 HOH  -0.8340 
 344 H1     -12.3084    18.0608    48.2482 H     115 HOH   0.4170 
 345 H2     -11.5804    19.0017    47.3119 H     115 HOH   0.4170 
 346 O        4.1913    13.5102    47.4128 O.3   116 HOH  -0.8340 
 347 H1       3.3261    13.7004    47.0502 H     116 HOH   0.4170 
 348 H2       4.1202    13.7435    48.3384 H     116 HOH   0.4170 
 349 O       -2.3551     0.0652    28.7347 O.3   117 HOH   0.0000 
 350 H1      -1.3951     0.0652    28.7347 H     117 HOH   0.0000 
 351 H2      -2.6454     0.7122    29.3817 H     117 HOH   0.0000 
 352 O       -4.4310    12.5646    44.4235 O.3   118 HOH  -0.8340 
 353 H1      -4.8911    13.3191    44.7913 H     118 HOH   0.4170 
 354 H2      -4.6568    12.5757    43.4934 H     118 HOH   0.4170 
 355 O      -22.9276    12.6049    49.3607 O.3   119 HOH   0.0000 
 356 H1     -21.9676    12.6049    49.3607 H     119 HOH   0.0000 
 357 H2     -23.2179    13.2520    50.0077 H     119 HOH   0.0000 
 358 O       -6.0197     6.3152    21.1995 O.3   120 HOH   0.0000 
 359 H1      -5.0597     6.3152    21.1995 H     120 HOH   0.0000 
 360 H2      -6.3099     6.9623    21.8465 H     120 HOH   0.0000 
 361 O       -7.5395    35.6513    30.8080 O.3   121 HOH   0.0000 
 362 H1      -6.5795    35.6513    30.8080 H     121 HOH   0.0000 
 363 H2      -7.8298    36.2984    31.4550 H     121 HOH   0.0000 
 364 O      -25.0517     6.9921    38.4156 O.3   122 HOH  -0.8340 
 365 H1     -25.5865     7.7827    38.4873 H     122 HOH   0.4170 
 366 H2     -24.6825     7.0312    37.5333 H     122 HOH   0.4170 
 367 O      -18.1812    23.8937    36.3133 O.3   123 HOH  -0.8340 
 368 H1     -17.2835    23.7089    36.0371 H     123 HOH   0.4170 
 369 H2     -18.6544    23.0772    36.1532 H     123 HOH   0.4170 
 370 O        7.4544    18.5955    29.4776 O.3   124 HOH   0.0000 
 371 H1       8.4144    18.5955    29.4776 H     124 HOH   0.0000 
 372 H2       7.1641    19.2425    30.1247 H     124 HOH   0.0000 
 373 O       26.2767    19.5491    28.9943 O.3   125 HOH   0.0000 
 374 H1      27.2367    19.5491    28.9943 H     125 HOH   0.0000 
 375 H2      25.9864    20.1962    29.6414 H     125 HOH   0.0000 
 376 O      -15.2324    11.5493    52.8974 O.3   126 HOH  -0.8340 
 377 H1     -14.3335    11.5040    53.2231 H     126 HOH   0.4170 
 378 H2     -15.1874    12.1465    52.1507 H     126 HOH   0.4170 
 379 O       -0.4249    27.2659    46.8872 O.3   127 HOH   0.0000 
 380 H1       0.5351    27.2659    46.8872 H     127 HOH   0.0000 
 381 H2      -0.7152    27.9130    47.5343 H     127 HOH   0.0000 
 382 O        9.9682    32.8794    31.7997 O.3   128 HOH   0.0000 
 383 H1      10.9282    32.8794    31.7997 H     128 HOH   0.0000 
 384 H2       9.6780    33.5264    32.4468 H     128 HOH   0.0000 
 385 O       13.4526    26.0090    17.7533 O.3   129 HOH   0.0000 
 386 H1      14.4126    26.0090    17.7533 H     129 HOH   0.0000 
 387 H2      13.1623    26.6561    18.4004 H     129 HOH   0.0000 
 388 O      -10.5042    28.7147    41.1683 O.3   130 HOH   0.0000 
 389 H1      -9.5442    28.7147    41.1683 H     130 HOH   0.0000 
 390 H2     -10.7945    29.3617    41.8154 H     130 HOH   0.0000 
 391 O      -14.6041    -1.3855    10.4684 O.3   131 HOH   0.0000 
 392 H1     -13.6441    -1.3855    10.4684 H     131 HOH   0.0000 
 393 H2     -14.8944    -0.7384    11.1154 H     131 HOH   0.0000 
 394 O       10.2065    36.8966    44.6883 O.3   132 HOH  -0.8340 
 395 H1      10.5109    37.6410    45.2074 H     132 HOH   0.4170 
 396 H2       9.4823    37.2462    44.1691 H     132 HOH   0.4170 
 397 O       -4.9325    16.2946    24.8711 O.3   133 HOH   0.0000 
 398 H1      -3.9725    16.2946    24.8711 H     133 HOH   0.0000 
 399 H2      -5.2228    16.9416    25.5182 H     133 HOH   0.0000 
 400 O        8.5742    12.1383    31.1590 O.3   134 HOH   0.0000 
 401 H1       9.5342    12.1383    31.1590 H     134 HOH   0.0000 
 402 H2       8.2839    12.7854    31.8060 H     134 HOH   0.0000 
 403 O       17.0257    18.8220    39.0839 O.3   135 HOH  -0.8340 
 404 H1      16.1213    18.5196    39.0006 H     135 HOH   0.4170 
 405 H2      17.5532    18.0280    38.9973 H     135 HOH   0.4170 
 406 O      -37.1554    22.2052    29.9455 O.3   136 HOH  -0.8340 
 407 H1     -36.3661    22.3748    30.4598 H     136 HOH   0.4170 
 408 H2     -37.6864    22.9942    30.0537 H     136 HOH   0.4170 
 409 O      -16.1692    11.1832    11.8609 O.3   137 HOH   0.0000 
 410 H1     -15.2092    11.1832    11.8609 H     137 HOH   0.0000 
 411 H2     -16.4594    11.8302    12.5079 H     137 HOH   0.0000 
 412 O      -22.1618    11.2074    36.6225 O.3   138 HOH   0.0000 
 413 H1     -21.2018    11.2074    36.6225 H     138 HOH   0.0000 
 414 H2     -22.4521    11.8545    37.2696 H     138 HOH   0.0000 
 415 O      -10.6437    16.4959     8.4007 O.3   139 HOH   0.0000 
 416 H1      -9.6837    16.4959     8.4007 H     139 HOH   0.0000 
 417 H2     -10.9340    17.1429     9.0478 H     139 HOH   0.0000 
 418 O      -16.0817    22.6135    15.3217 O.3   140 HOH   0.0000 
 419 H1     -15.1217    22.6135    15.3217 H     140 HOH   0.0000 
 420 H2     -16.3720    23.2605    15.9688 H     140 HOH   0.0000 
 421 O       15.7915    38.0548    40.8216 O.3   141 HOH   0.0000 
 422 H1      16.7515    38.0548    40.8216 H     141 HOH   0.0000 
 423 H2      15.5012    38.7019    41.4686 H     141 HOH   0.0000 
 424 O       -7.4969    23.0993    23.7345 O.3   142 HOH   0.0000 
 425 H1      -6.5369    23.0993    23.7345 H     142 HOH   0.0000 
 426 H2      -7.7872    23.7464    24.3815 H     142 HOH   0.0000 
 427 O      -21.3364    12.1474    17.1387 O.3   143 HOH  -0.8340 
 428 H1     -22.2462    12.4003    17.2950 H     143 HOH   0.4170 
 429 H2     -21.0678    12.6715    16.3841 H     143 HOH   0.4170 
 430 O        2.6558    38.8313    38.9565 O.3   144 HOH  -0.8340 
 431 H1       3.5381    38.4960    39.1156 H     144 HOH   0.4170 
 432 H2       2.0841    38.0751    39.0892 H     144 HOH   0.4170 
 433 O       17.5593    27.7626    43.8353 O.3   145 HOH  -0.8340 
 434 H1      17.3584    28.2841    43.0582 H     145 HOH   0.4170 
 435 H2      17.1420    26.9169    43.6713 H     145 HOH   0.4170 
 436 O        7.7137    35.1217    29.0110 O.3   146 HOH   0.0000 
 437 H1       8.6737    35.1217    29.0110 H     146 HOH   0.0000 
 438 H2       7.4234    35.7688    29.6581 H     146 HOH   0.0000 
 439 O        0.2817    12.6468    44.9479 O.3   147 HOH  -0.8340 
 440 H1      -0.4868    12.0986    45.1070 H     147 HOH   0.4170 
 441 H2       0.8576    12.1026    44.4108 H     147 HOH   0.4170 
 442 O       15.0920    45.2279    35.1102 O.3   148 HOH   0.0000 
 443 H1      16.0520    45.2279    35.1102 H     148 HOH   0.0000 
 444 H2      14.8017    45.8750    35.7572 H     148 HOH   0.0000 
 445 O       -9.9087    32.3600    26.3029 O.3   149 HOH   0.0000 
 446 H1      -8.9487    32.3600    26.3029 H     149 HOH   0.0000 
 447 H2     -10.1990    33.0071    26.9500 H     149 HOH   0.0000 
 448 O       12.1962    11.6204    38.8803 O.3   150 HOH   0.0000 
 449 H1      13.1562    11.6204    38.8803 H     150 HOH   0.0000 
 450 H2      11.9059    12.2675    39.5274 H     150 HOH   0.0000 
 451 O       11.0701    18.7004    33.9181 O.3   151 HOH   0.0000 
 452 H1      12.0301    18.7004    33.9181 H     151 HOH   0.0000 
 453 H2      10.7798    19.3474    34.5651 H     151 HOH   0.0000 
 454 O      -19.4400    19.3544    44.7563 O.3   152 HOH   0.0000 
 455 H1     -18.4800    19.3544    44.7563 H     152 HOH   0.0000 
 456 H2     -19.7303    20.0014    45.4034 H     152 HOH   0.0000 
 457 O        2.1554    14.4512    32.7163 O.3   153 HOH  -0.8340 
 458 H1       1.4127    15.0105    32.9440 H     153 HOH   0.4170 
 459 H2       1.7618    13.6950    32.2810 H     153 HOH   0.4170 
 460 O       16.1498    37.2230    38.5485 O.3   154 HOH   0.0000 
 461 H1      17.1098    37.2230    38.5485 H     154 HOH   0.0000 
 462 H2      15.8596    37.8700    39.1956 H     154 HOH   0.0000 
 463 O        2.4596     3.7453    27.3866 O.3   155 HOH  -0.8340 
 464 H1       1.9637     4.4802    27.0256 H     155 HOH   0.4170 
 465 H2       2.2861     3.7778    28.3274 H     155 HOH   0.4170 
 466 O       18.0832    42.4111    35.2320 O.3   156 HOH   0.0000 
 467 H1      19.0432    42.4111    35.2320 H     156 HOH   0.0000 
 468 H2      17.7930    43.0582    35.8790 H     156 HOH   0.0000 
 469 O        3.5813     9.1730    36.7035 O.3   157 HOH  -0.8340 
 470 H1       4.2291     9.7106    37.1590 H     157 HOH   0.4170 
 471 H2       2.8524     9.7692    36.5321 H     157 HOH   0.4170 
 472 O       16.2595    22.8362    50.5076 O.3   158 HOH   0.0000 
 473 H1      17.2195    22.8362    50.5076 H     158 HOH   0.0000 
 474 H2      15.9692    23.4832    51.1546 H     158 HOH   0.0000 
 475 O        2.1127    35.7625    42.0165 O.3   159 HOH  -0.8340 
 476 H1       1.3443    35.2144    42.1756 H     159 HOH   0.4170 
 477 H2       2.6887    35.2184    41.4794 H     159 HOH   0.4170 
 478 O       -0.7058    34.7484    40.0889 O.3   160 HOH   0.0000 
 479 H1       0.2542    34.7484    40.0889 H     160 HOH   0.0000 
 480 H2      -0.9961    35.3955    40.7359 H     160 HOH   0.0000 
 481 O       -2.6747     3.8621    35.8350 O.3   161 HOH   0.0000 
 482 H1      -1.7147     3.8621    35.8350 H     161 HOH   0.0000 
 483 H2      -2.9649     4.5091    36.4821 H     161 HOH   0.0000 
 484 O       -2.1052    12.5279    24.1153 O.3   162 HOH   0.0000 
 485 H1      -1.1452    12.5279    24.1153 H     162 HOH   0.0000 
 486 H2      -2.3955    13.1750    24.7623 H     162 HOH   0.0000 
 487 O       -0.9495    29.7607    34.4850 O.3   163 HOH   0.0000 
 488 H1       0.0105    29.7607    34.4850 H     163 HOH   0.0000 
 489 H2      -1.2398    30.4078    35.1320 H     163 HOH   0.0000 
 490 O       14.5359    34.2457    52.5635 O.3   164 HOH   0.0000 
 491 H1      15.4959    34.2457    52.5635 H     164 HOH   0.0000 
 492 H2      14.2456    34.8927    53.2106 H     164 HOH   0.0000 
 493 O      -23.8756     9.5840    47.7082 O.3   165 HOH   0.0000 
 494 H1     -22.9156     9.5840    47.7082 H     165 HOH   0.0000 
 495 H2     -24.1658    10.2311    48.3552 H     165 HOH   0.0000 
 496 O       -2.3448    30.8846    35.9761 O.3   166 HOH   0.0000 
 497 H1      -1.3848    30.8846    35.9761 H     166 HOH   0.0000 
 498 H2      -2.6351    31.5316    36.6232 H     166 HOH   0.0000 
 499 O      -15.1340    25.4895    39.7158 O.3   167 HOH   0.0000 
 500 H1     -14.1740    25.4895    39.7158 H     167 HOH   0.0000 
 501 H2     -15.4242    26.1365    40.3629 H     167 HOH   0.0000 
 502 O       -0.3788    14.2111    42.6353 O.3   168 HOH  -0.8340 
 503 H1       0.3953    14.1949    42.0725 H     168 HOH   0.4170 
 504 H2      -0.0632    13.9072    43.4864 H     168 HOH   0.4170 
 505 O      -13.0817     4.7179    22.8540 O.3   169 HOH   0.0000 
 506 H1     -12.1217     4.7179    22.8540 H     169 HOH   0.0000 
 507 H2     -13.3719     5.3650    23.5011 H     169 HOH   0.0000 
 508 O      -14.6646    28.8457    29.9879 O.3   170 HOH   0.0000 
 509 H1     -13.7046    28.8457    29.9879 H     170 HOH   0.0000 
 510 H2     -14.9549    29.4927    30.6350 H     170 HOH   0.0000 
 511 O       -5.7763    10.9988    46.4053 O.3   171 HOH  -0.8340 
 512 H1      -5.4516    10.9928    45.5049 H     171 HOH   0.4170 
 513 H2      -5.6973    10.0899    46.6949 H     171 HOH   0.4170 
 514 O       -0.1281     2.0018    35.6373 O.3   172 HOH   0.0000 
 515 H1       0.8319     2.0018    35.6373 H     172 HOH   0.0000 
 516 H2      -0.4184     2.6488    36.2843 H     172 HOH   0.0000 
 517 O      -16.2731     7.8729    13.9208 O.3   173 HOH   0.0000 
 518 H1     -15.3131     7.8729    13.9208 H     173 HOH   0.0000 
 519 H2     -16.5633     8.5199    14.5679 H     173 HOH   0.0000 
 520 O       -4.5895     4.9589    43.6926 O.3   174 HOH   0.0000 
 521 H1      -3.6295     4.9589    43.6926 H     174 HOH   0.0000 
 522 H2      -4.8798     5.6059    44.3396 H     174 HOH   0.0000 
 523 O      -11.0701     2.6209    40.7968 O.3   175 HOH   0.0000 
 524 H1     -10.1101     2.6209    40.7968 H     175 HOH   0.0000 
 525 H2     -11.3604     3.2680    41.4438 H     175 HOH   0.0000 
 526 O       19.0264    35.4264    31.2604 O.3   176 HOH   0.0000 
 527 H1      19.9864    35.4264    31.2604 H     176 HOH   0.0000 
 528 H2      18.7362    36.0735    31.9074 H     176 HOH   0.0000 
 529 O       11.1031    27.8032    54.8474 O.3   177 HOH  -0.8340 
 530 H1      11.8101    28.0621    55.4385 H     177 HOH   0.4170 
 531 H2      11.2731    28.2911    54.0417 H     177 HOH   0.4170 
 532 O       18.5915    22.5752    26.1502 O.3   178 HOH   0.0000 
 533 H1      19.5515    22.5752    26.1502 H     178 HOH   0.0000 
 534 H2      18.3012    23.2223    26.7972 H     178 HOH   0.0000 
 535 O      -25.0333    14.5228    24.7058 O.3   179 HOH  -0.8340 
 536 H1     -25.7539    13.9133    24.5462 H     179 HOH   0.4170 
 537 H2     -24.9416    15.0063    23.8848 H     179 HOH   0.4170 
 538 O       -1.2918    33.8186    34.5700 O.3   180 HOH   0.0000 
 539 H1      -0.3318    33.8186    34.5700 H     180 HOH   0.0000 
 540 H2      -1.5820    34.4656    35.2170 H     180 HOH   0.0000 
 541 O       10.2361    40.7846    38.9340 O.3   181 HOH  -0.8340 
 542 H1      10.6669    39.9327    39.0043 H     181 HOH   0.4170 
 543 H2       9.6786    40.8365    39.7104 H     181 HOH   0.4170 
 544 O      -34.7763    17.0179    33.7518 O.3   182 HOH  -0.8340 
 545 H1     -33.9444    17.4900    33.7895 H     182 HOH   0.4170 
 546 H2     -34.5265    16.0987    33.6569 H     182 HOH   0.4170 
 547 O       -2.3474     9.7084    46.9720 O.3   183 HOH   0.0000 
 548 H1      -1.3874     9.7084    46.9720 H     183 HOH   0.0000 
 549 H2      -2.6377    10.3555    47.6190 H     183 HOH   0.0000 
 550 O       -5.3319    30.3190    36.0721 O.3   184 HOH   0.0000 
 551 H1      -4.3719    30.3190    36.0721 H     184 HOH   0.0000 
 552 H2      -5.6222    30.9661    36.7192 H     184 HOH   0.0000 
 553 O       -7.6258    24.8159    46.0949 O.3   185 HOH   0.0000 
 554 H1      -6.6658    24.8159    46.0949 H     185 HOH   0.0000 
 555 H2      -7.9160    25.4630    46.7419 H     185 HOH   0.0000 
 556 O        4.8063     6.3600    32.2626 O.3   186 HOH   0.0000 
 557 H1       5.7663     6.3600    32.2626 H     186 HOH   0.0000 
 558 H2       4.5160     7.0070    32.9097 H     186 HOH   0.0000 
 559 O      -16.5945     5.3136    14.6876 O.3   187 HOH   0.0000 
 560 H1     -15.6345     5.3136    14.6876 H     187 HOH   0.0000 
 561 H2     -16.8848     5.9607    15.3346 H     187 HOH   0.0000 
 562 O       21.7390    35.1143    34.1056 O.3   188 HOH   0.0000 
 563 H1      22.6990    35.1143    34.1056 H     188 HOH   0.0000 
 564 H2      21.4487    35.7613    34.7526 H     188 HOH   0.0000 
 565 O      -23.9058    22.6001    22.3205 O.3   189 HOH  -0.8340 
 566 H1     -23.2999    22.6902    23.0560 H     189 HOH   0.4170 
 567 H2     -23.7488    21.7167    21.9870 H     189 HOH   0.4170 
 568 O        8.4052    15.5068    28.3389 O.3   190 HOH   0.0000 
 569 H1       9.3652    15.5068    28.3389 H     190 HOH   0.0000 
 570 H2       8.1150    16.1538    28.9860 H     190 HOH   0.0000 
 571 O      -22.6983    -0.4761    29.0213 O.3   191 HOH   0.0000 
 572 H1     -21.7383    -0.4761    29.0213 H     191 HOH   0.0000 
 573 H2     -22.9886     0.1709    29.6683 H     191 HOH   0.0000 
 574 O        9.8953    32.4326    29.3437 O.3   192 HOH   0.0000 
 575 H1      10.8553    32.4326    29.3437 H     192 HOH   0.0000 
 576 H2       9.6050    33.0797    29.9907 H     192 HOH   0.0000 
 577 O       17.2040    21.8237    39.0196 O.3   193 HOH  -0.8340 
 578 H1      17.3116    20.8751    39.0890 H     193 HOH   0.4170 
 579 H2      17.3899    22.1514    39.8995 H     193 HOH   0.4170 
 580 O       16.0336    25.1235    49.1010 O.3   194 HOH   0.0000 
 581 H1      16.9936    25.1235    49.1010 H     194 HOH   0.0000 
 582 H2      15.7433    25.7706    49.7481 H     194 HOH   0.0000 
 583 O       -5.9054    13.0891    47.8117 O.3   195 HOH  -0.8340 
 584 H1      -5.2746    13.6547    47.3663 H     195 HOH   0.4170 
 585 H2      -5.7775    12.2276    47.4147 H     195 HOH   0.4170 
 586 O       -0.6734    25.6916    21.7280 O.3   196 HOH  -0.8340 
 587 H1      -0.7785    25.6816    20.7766 H     196 HOH   0.4170 
 588 H2      -0.0346    26.3853    21.8916 H     196 HOH   0.4170 
 589 O       -7.6948    -0.1870    35.6123 O.3   197 HOH   0.0000 
 590 H1      -6.7348    -0.1870    35.6123 H     197 HOH   0.0000 
 591 H2      -7.9851     0.4601    36.2594 H     197 HOH   0.0000 
 592 O       -8.3638    28.7911    43.2637 O.3   198 HOH   0.0000 
 593 H1      -7.4038    28.7911    43.2637 H     198 HOH   0.0000 
 594 H2      -8.6540    29.4381    43.9108 H     198 HOH   0.0000 
 595 O      -12.1455    26.2865    46.4190 O.3   199 HOH   0.0000 
 596 H1     -11.1855    26.2865    46.4190 H     199 HOH   0.0000 
 597 H2     -12.4358    26.9336    47.0661 H     199 HOH   0.0000 
 598 O        9.6155    16.6758    34.8335 O.3   200 HOH   0.0000 
 599 H1      10.5755    16.6758    34.8335 H     200 HOH   0.0000 
 600 H2       9.3252    17.3228    35.4805 H     200 HOH   0.0000 
 601 O       -4.1133    32.0724    37.5615 O.3   201 HOH   0.0000 
 602 H1      -3.1533    32.0724    37.5615 H     201 HOH   0.0000 
 603 H2      -4.4036    32.7195    38.2085 H     201 HOH   0.0000 
 604 O        0.7037    18.9971    15.2187 O.3   202 HOH  -0.8340 
 605 H1       0.7483    19.6883    14.5581 H     202 HOH   0.4170 
 606 H2       1.3095    18.3257    14.9049 H     202 HOH   0.4170 
 607 O       11.5718    39.6052    47.5531 O.3   203 HOH  -0.8340 
 608 H1      12.1529    39.5534    48.3119 H     203 HOH   0.4170 
 609 H2      12.1238    39.9501    46.8512 H     203 HOH   0.4170 
 610 O       12.2755    50.0585    33.8431 O.3   204 HOH   0.0000 
 611 H1      13.2355    50.0585    33.8431 H     204 HOH   0.0000 
 612 H2      11.9852    50.7055    34.4902 H     204 HOH   0.0000 
 613 O       16.3826    34.9870    41.5854 O.3   205 HOH   0.0000 
 614 H1      17.3426    34.9870    41.5854 H     205 HOH   0.0000 
 615 H2      16.0923    35.6341    42.2325 H     205 HOH   0.0000 
 616 O      -21.9706     1.0594    25.3193 O.3   206 HOH   0.0000 
 617 H1     -21.0106     1.0594    25.3193 H     206 HOH   0.0000 
 618 H2     -22.2609     1.7065    25.9663 H     206 HOH   0.0000 
 619 O        0.8890    -1.3194    16.3785 O.3   207 HOH  -0.8340 
 620 H1       0.1545    -1.7981    16.7627 H     207 HOH   0.4170 
 621 H2       0.9284    -0.5018    16.8747 H     207 HOH   0.4170 
 622 O      -16.0028     4.4401    49.0157 O.3   208 HOH   0.0000 
 623 H1     -15.0428     4.4401    49.0157 H     208 HOH   0.0000 
 624 H2     -16.2931     5.0872    49.6628 H     208 HOH   0.0000 
 625 O      -18.7639    19.4885    15.0417 O.3   209 HOH   0.0000 
 626 H1     -17.8039    19.4885    15.0417 H     209 HOH   0.0000 
 627 H2     -19.0542    20.1355    15.6887 H     209 HOH   0.0000 
 628 O       -6.4339    32.0480    38.5840 O.3   210 HOH   0.0000 
 629 H1      -5.4739    32.0480    38.5840 H     210 HOH   0.0000 
 630 H2      -6.7242    32.6951    39.2310 H     210 HOH   0.0000 
 631 O       12.6642    42.2943    45.7182 O.3   211 HOH  -0.8340 
 632 H1      12.7088    42.9855    45.0576 H     211 HOH   0.4170 
 633 H2      13.2700    41.6229    45.4043 H     211 HOH   0.4170 
 634 O       -7.6502    35.0652    41.1030 O.3   212 HOH   0.0000 
 635 H1      -6.6902    35.0652    41.1030 H     212 HOH   0.0000 
 636 H2      -7.9405    35.7122    41.7500 H     212 HOH   0.0000 
 637 O        5.7436     4.9827    42.0015 O.3   213 HOH   0.0000 
 638 H1       6.7036     4.9827    42.0015 H     213 HOH   0.0000 
 639 H2       5.4533     5.6298    42.6486 H     213 HOH   0.0000 
 640 O      -21.9692    28.4952    23.7967 O.3   214 HOH   0.0000 
 641 H1     -21.0092    28.4952    23.7967 H     214 HOH   0.0000 
 642 H2     -22.2595    29.1422    24.4438 H     214 HOH   0.0000 
 643 O        1.2891    20.8214    18.9735 O.3   215 HOH  -0.8340 
 644 H1       0.4491    21.2389    18.7831 H     215 HOH   0.4170 
 645 H2       1.9433    21.4751    18.7267 H     215 HOH   0.4170 
 646 O        0.1601    27.0986    52.5357 O.3   216 HOH  -0.8340 
 647 H1       0.1684    27.6956    53.2839 H     216 HOH   0.4170 
 648 H2      -0.7628    27.0348    52.2898 H     216 HOH   0.4170 
 649 O        1.8583    10.4570    18.1778 O.3   217 HOH  -0.8340 
 650 H1       1.1610    11.0851    18.3660 H     217 HOH   0.4170 
 651 H2       2.6672    10.9327    18.3667 H     217 HOH   0.4170 
 652 O       -2.8839    35.4999    24.8799 O.3   218 HOH   0.0000 
 653 H1      -1.9239    35.4999    24.8799 H     218 HOH   0.0000 
 654 H2      -3.1742    36.1469    25.5270 H     218 HOH   0.0000 
 655 O      -16.2842    28.6223    35.0375 O.3   219 HOH   0.0000 
 656 H1     -15.3242    28.6223    35.0375 H     219 HOH   0.0000 
 657 H2     -16.5745    29.2694    35.6846 H     219 HOH   0.0000 
 658 O      -15.3436    27.3425    19.3152 O.3   220 HOH   0.0000 
 659 H1     -14.3836    27.3425    19.3152 H     220 HOH   0.0000 
 660 H2     -15.6339    27.9896    19.9622 H     220 HOH   0.0000 
 661 O      -20.3584    18.6652    16.6567 O.3   221 HOH  -0.8340 
 662 H1     -20.7972    19.3214    17.1980 H     221 HOH   0.4170 
 663 H2     -19.6699    19.1505    16.2021 H     221 HOH   0.4170 
 664 O       -4.2500    26.2609    46.1585 O.3   222 HOH   0.0000 
 665 H1      -3.2900    26.2609    46.1585 H     222 HOH   0.0000 
 666 H2      -4.5403    26.9080    46.8056 H     222 HOH   0.0000 
 667 O       20.4759    23.4770    27.3649 O.3   223 HOH   0.0000 
 668 H1      21.4359    23.4770    27.3649 H     223 HOH   0.0000 
 669 H2      20.1856    24.1241    28.0119 H     223 HOH   0.0000 
 670 O      -22.3476    27.6867    35.5264 O.3   224 HOH  -0.8340 
 671 H1     -22.6514    28.0577    34.6980 H     224 HOH   0.4170 
 672 H2     -22.3653    26.7400    35.3863 H     224 HOH   0.4170 
 673 O       16.3001    23.2630    24.0937 O.3   225 HOH   0.0000 
 674 H1      17.2601    23.2630    24.0937 H     225 HOH   0.0000 
 675 H2      16.0098    23.9101    24.7407 H     225 HOH   0.0000 
 676 O       -1.7877    33.0711    37.2451 O.3   226 HOH   0.0000 
 677 H1      -0.8277    33.0711    37.2451 H     226 HOH   0.0000 
 678 H2      -2.0780    33.7181    37.8922 H     226 HOH   0.0000 
 679 O       -5.4341     0.0986    36.5269 O.3   227 HOH   0.0000 
 680 H1      -4.4741     0.0986    36.5269 H     227 HOH   0.0000 
 681 H2      -5.7244     0.7456    37.1740 H     227 HOH   0.0000 
 682 O       11.5460    29.3355    24.2859 O.3   228 HOH   0.0000 
 683 H1      12.5060    29.3355    24.2859 H     228 HOH   0.0000 
 684 H2      11.2558    29.9826    24.9329 H     228 HOH   0.0000 
 685 O       -2.3435     7.6599    33.3384 O.3   229 HOH   0.0000 
 686 H1      -1.3835     7.6599    33.3384 H     229 HOH   0.0000 
 687 H2      -2.6338     8.3069    33.9855 H     229 HOH   0.0000 
 688 O       18.3684    31.0824    51.2278 O.3   230 HOH   0.0000 
 689 H1      19.3284    31.0824    51.2278 H     230 HOH   0.0000 
 690 H2      18.0781    31.7294    51.8748 H     230 HOH   0.0000 
 691 O       -1.3929    10.9049    44.8399 O.3   231 HOH  -0.8340 
 692 H1      -1.4023    10.3392    44.0678 H     231 HOH   0.4170 
 693 H2      -1.3258    10.3008    45.5793 H     231 HOH   0.4170 
 694 O       -1.4684    15.8494    47.6552 O.3   232 HOH  -0.8340 
 695 H1      -2.2375    15.7010    48.2055 H     232 HOH   0.4170 
 696 H2      -0.8499    15.1680    47.9186 H     232 HOH   0.4170 
 697 O      -18.4749     5.8053    53.2554 O.3   233 HOH   0.0000 
 698 H1     -17.5149     5.8053    53.2554 H     233 HOH   0.0000 
 699 H2     -18.7651     6.4523    53.9025 H     233 HOH   0.0000 
 700 O       -4.9236    -6.9600    23.2187 O.3   234 HOH   0.0000 
 701 H1      -3.9636    -6.9600    23.2187 H     234 HOH   0.0000 
 702 H2      -5.2139    -6.3130    23.8657 H     234 HOH   0.0000 
 703 O      -15.0216    -0.6378    27.3583 O.3   235 HOH   0.0000 
 704 H1     -14.0616    -0.6378    27.3583 H     235 HOH   0.0000 
 705 H2     -15.3118     0.0092    28.0053 H     235 HOH   0.0000 
 706 O       -1.5674     4.6378    26.9741 O.3   236 HOH   0.0000 
 707 H1      -0.6074     4.6378    26.9741 H     236 HOH   0.0000 
 708 H2      -1.8577     5.2848    27.6212 H     236 HOH   0.0000 
 709 O      -22.0609    26.0861    17.5746 O.3   237 HOH   0.0000 
 710 H1     -21.1009    26.0861    17.5746 H     237 HOH   0.0000 
 711 H2     -22.3511    26.7331    18.2217 H     237 HOH   0.0000 
 712 O       -0.6694    39.2370    33.1450 O.3   238 HOH   0.0000 
 713 H1       0.2906    39.2370    33.1450 H     238 HOH   0.0000 
 714 H2      -0.9597    39.8840    33.7920 H     238 HOH   0.0000 
 715 O       13.9584    39.5676    40.6391 O.3   239 HOH   0.0000 
 716 H1      14.9184    39.5676    40.6391 H     239 HOH   0.0000 
 717 H2      13.6681    40.2146    41.2861 H     239 HOH   0.0000 
 718 O        7.0130    16.0503    24.3992 O.3   240 HOH   0.0000 
 719 H1       7.9730    16.0503    24.3992 H     240 HOH   0.0000 
 720 H2       6.7227    16.6974    25.0463 H     240 HOH   0.0000 
 721 O        5.7897    39.0461    31.2372 O.3   241 HOH   0.0000 
 722 H1       6.7497    39.0461    31.2372 H     241 HOH   0.0000 
 723 H2       5.4994    39.6932    31.8843 H     241 HOH   0.0000 
 724 O      -19.4756     9.0614    54.0320 O.3   242 HOH   0.0000 
 725 H1     -18.5156     9.0614    54.0320 H     242 HOH   0.0000 
 726 H2     -19.7658     9.7085    54.6790 H     242 HOH   0.0000 
 727 O        3.6354     8.1318    12.2165 O.3   243 HOH  -0.8340 
 728 H1       2.8656     8.6144    11.9153 H     243 HOH   0.4170 
 729 H2       3.4806     7.9917    13.1506 H     243 HOH   0.4170 
 730 O      -32.4736    21.4101    26.9937 O.3   244 HOH  -0.8340 
 731 H1     -31.7482    20.9341    27.3980 H     244 HOH   0.4170 
 732 H2     -33.2599    20.9826    27.3333 H     244 HOH   0.4170 
 733 O       21.3785    23.7966    37.8152 O.3   245 HOH   0.0000 
 734 H1      22.3385    23.7966    37.8152 H     245 HOH   0.0000 
 735 H2      21.0882    24.4437    38.4622 H     245 HOH   0.0000 
 736 O       -7.6346    36.5529    28.3908 O.3   246 HOH   0.0000 
 737 H1      -6.6746    36.5529    28.3908 H     246 HOH   0.0000 
 738 H2      -7.9249    37.1999    29.0379 H     246 HOH   0.0000 
 739 O       10.2659    15.0641    26.9789 O.3   247 HOH   0.0000 
 740 H1      11.2259    15.0641    26.9789 H     247 HOH   0.0000 
 741 H2       9.9756    15.7111    27.6259 H     247 HOH   0.0000 
 742 O      -12.2884     0.3993    40.9088 O.3   248 HOH   0.0000 
 743 H1     -11.3284     0.3993    40.9088 H     248 HOH   0.0000 
 744 H2     -12.5787     1.0464    41.5559 H     248 HOH   0.0000 
 745 O       -1.8196     5.2785    33.5715 O.3   249 HOH   0.0000 
 746 H1      -0.8596     5.2785    33.5715 H     249 HOH   0.0000 
 747 H2      -2.1099     5.9256    34.2186 H     249 HOH   0.0000 
 748 O      -10.5685     2.8809    47.2335 O.3   250 HOH   0.0000 
 749 H1      -9.6085     2.8809    47.2335 H     250 HOH   0.0000 
 750 H2     -10.8588     3.5279    47.8805 H     250 HOH   0.0000 
 751 O      -10.3907     8.7991    51.2110 O.3   251 HOH  -0.8340 
 752 H1     -10.4795     9.5926    50.6830 H     251 HOH   0.4170 
 753 H2     -10.2297     8.1034    50.5735 H     251 HOH   0.4170 
 754 O        3.8372    22.0944    28.9416 O.3   252 HOH  -0.8340 
 755 H1       4.0061    21.1523    28.9582 H     252 HOH   0.4170 
 756 H2       4.4885    22.4656    29.5367 H     252 HOH   0.4170 
 757 O      -21.0358     8.5428    36.1435 O.3   253 HOH  -0.8340 
 758 H1     -21.7909     8.1347    35.7199 H     253 HOH   0.4170 
 759 H2     -20.4409     7.8155    36.3261 H     253 HOH   0.4170 
 760 O       11.6423    10.2625    24.4385 O.3   254 HOH  -0.8340 
 761 H1      11.2227    10.3655    23.5843 H     254 HOH   0.4170 
 762 H2      12.5487    10.0325    24.2345 H     254 HOH   0.4170 
 763 O        4.9110    30.0762    24.2731 O.3   255 HOH   0.0000 
 764 H1       5.8710    30.0762    24.2731 H     255 HOH   0.0000 
 765 H2       4.6207    30.7232    24.9202 H     255 HOH   0.0000 
 766 O      -11.7108    -5.3094     9.6063 O.3   256 HOH   0.0000 
 767 H1     -10.7508    -5.3094     9.6063 H     256 HOH   0.0000 
 768 H2     -12.0010    -4.6623    10.2534 H     256 HOH   0.0000 
 769 O       -4.2976     4.9122    33.6456 O.3   257 HOH   0.0000 
 770 H1      -3.3376     4.9122    33.6456 H     257 HOH   0.0000 
 771 H2      -4.5879     5.5593    34.2926 H     257 HOH   0.0000 
 772 O       -8.6124    21.8995    15.8103 O.3   258 HOH  -0.8340 
 773 H1      -9.3690    22.3593    15.4465 H     258 HOH   0.4170 
 774 H2      -8.8076    20.9721    15.6755 H     258 HOH   0.4170 
 775 O       14.9339    34.8516    30.8337 O.3   259 HOH   0.0000 
 776 H1      15.8939    34.8516    30.8337 H     259 HOH   0.0000 
 777 H2      14.6436    35.4986    31.4807 H     259 HOH   0.0000 
 778 O       -7.8836    32.2482    18.8624 O.3   260 HOH   0.0000 
 779 H1      -6.9236    32.2482    18.8624 H     260 HOH   0.0000 
 780 H2      -8.1739    32.8953    19.5094 H     260 HOH   0.0000 
 781 O        6.0831    42.3559    32.9127 O.3   261 HOH   0.0000 
 782 H1       7.0431    42.3559    32.9127 H     261 HOH   0.0000 
 783 H2       5.7928    43.0030    33.5597 H     261 HOH   0.0000 
 784 O      -21.4595     9.9613    18.1603 O.3   262 HOH   0.0000 
 785 H1     -20.4995     9.9613    18.1603 H     262 HOH   0.0000 
 786 H2     -21.7497    10.6083    18.8073 H     262 HOH   0.0000 
 787 O       -9.2552    32.9706    37.6470 O.3   263 HOH   0.0000 
 788 H1      -8.2952    32.9706    37.6470 H     263 HOH   0.0000 
 789 H2      -9.5455    33.6177    38.2940 H     263 HOH   0.0000 
 790 O       -3.7061    14.5437    22.9735 O.3   264 HOH   0.0000 
 791 H1      -2.7461    14.5437    22.9735 H     264 HOH   0.0000 
 792 H2      -3.9964    15.1908    23.6205 H     264 HOH   0.0000 
 793 O       -8.6924    -8.6045    26.2680 O.3   265 HOH   0.0000 
 794 H1      -7.7324    -8.6045    26.2680 H     265 HOH   0.0000 
 795 H2      -8.9827    -7.9574    26.9151 H     265 HOH   0.0000 
 796 O       10.8752    21.1716    29.5251 O.3   266 HOH   0.0000 
 797 H1      11.8352    21.1716    29.5251 H     266 HOH   0.0000 
 798 H2      10.5850    21.8187    30.1721 H     266 HOH   0.0000 
 799 O        2.5733    42.1358    49.1771 O.3   267 HOH   0.0000 
 800 H1       3.5333    42.1358    49.1771 H     267 HOH   0.0000 
 801 H2       2.2830    42.7829    49.8242 H     267 HOH   0.0000 
 802 O      -25.7125     4.7780    49.2063 O.3   268 HOH   0.0000 
 803 H1     -24.7525     4.7780    49.2063 H     268 HOH   0.0000 
 804 H2     -26.0027     5.4251    49.8533 H     268 HOH   0.0000 
 805 O       19.5526    21.5740    37.6389 O.3   269 HOH  -0.8340 
 806 H1      18.6465    21.7276    37.9065 H     269 HOH   0.4170 
 807 H2      19.4976    20.8597    37.0041 H     269 HOH   0.4170 
 808 O      -14.2621    -3.0059    15.6198 O.3   270 HOH   0.0000 
 809 H1     -13.3021    -3.0059    15.6198 H     270 HOH   0.0000 
 810 H2     -14.5524    -2.3588    16.2668 H     270 HOH   0.0000 
 811 O      -11.3640    27.2484    50.6651 O.3   271 HOH   0.0000 
 812 H1     -10.4040    27.2484    50.6651 H     271 HOH   0.0000 
 813 H2     -11.6543    27.8954    51.3122 H     271 HOH   0.0000 
 814 O        9.9369    15.2233    31.0892 O.3   272 HOH   0.0000 
 815 H1      10.8969    15.2233    31.0892 H     272 HOH   0.0000 
 816 H2       9.6466    15.8704    31.7363 H     272 HOH   0.0000 
 817 O       -6.9734     1.2693    38.7053 O.3   273 HOH   0.0000 
 818 H1      -6.0134     1.2693    38.7053 H     273 HOH   0.0000 
 819 H2      -7.2636     1.9164    39.3524 H     273 HOH   0.0000 
 820 O       -6.5984    17.7879    13.0221 O.3   274 HOH  -0.8340 
 821 H1      -7.4313    17.3383    12.8794 H     274 HOH   0.4170 
 822 H2      -6.6820    18.1774    13.8925 H     274 HOH   0.4170 
 823 O       -6.2749     9.2667    11.0158 O.3   275 HOH   0.0000 
 824 H1      -5.3149     9.2667    11.0158 H     275 HOH   0.0000 
 825 H2      -6.5651     9.9137    11.6628 H     275 HOH   0.0000 
 826 O       -8.3516    19.9489    13.4661 O.3   276 HOH  -0.8340 
 827 H1      -8.0029    20.8099    13.6972 H     276 HOH   0.4170 
 828 H2      -7.7867    19.6439    12.7561 H     276 HOH   0.4170 
 829 O       -2.0662    31.1802    19.8227 O.3   277 HOH   0.0000 
 830 H1      -1.1062    31.1802    19.8227 H     277 HOH   0.0000 
 831 H2      -2.3565    31.8273    20.4698 H     277 HOH   0.0000 
 832 O       -3.1833     3.1640    31.3336 O.3   278 HOH   0.0000 
 833 H1      -2.2233     3.1640    31.3336 H     278 HOH   0.0000 
 834 H2      -3.4735     3.8111    31.9806 H     278 HOH   0.0000 
 835 O      -10.7321    19.8600    12.3549 O.3   279 HOH   0.0000 
 836 H1      -9.7721    19.8600    12.3549 H     279 HOH   0.0000 
 837 H2     -11.0224    20.5071    13.0019 H     279 HOH   0.0000 
 838 O        9.7562    10.9130    34.9643 O.3   280 HOH   0.0000 
 839 H1      10.7162    10.9130    34.9643 H     280 HOH   0.0000 
 840 H2       9.4660    11.5601    35.6114 H     280 HOH   0.0000 
 841 O        6.6669     4.1046    31.8820 O.3   281 HOH   0.0000 
 842 H1       7.6269     4.1046    31.8820 H     281 HOH   0.0000 
 843 H2       6.3766     4.7517    32.5291 H     281 HOH   0.0000 
 844 O       12.8226    40.7182    30.8220 O.3   282 HOH   0.0000 
 845 H1      13.7826    40.7182    30.8220 H     282 HOH   0.0000 
 846 H2      12.5324    41.3653    31.4691 H     282 HOH   0.0000 
 847 O        2.4036    -5.2557    17.0096 O.3   283 HOH   0.0000 
 848 H1       3.3636    -5.2557    17.0096 H     283 HOH   0.0000 
 849 H2       2.1134    -4.6086    17.6566 H     283 HOH   0.0000 
 850 O        1.0536     2.0106    28.9488 O.3   284 HOH   0.0000 
 851 H1       2.0136     2.0106    28.9488 H     284 HOH   0.0000 
 852 H2       0.7633     2.6576    29.5959 H     284 HOH   0.0000 
 853 O      -20.9556    10.8715    52.6064 O.3   285 HOH   0.0000 
 854 H1     -19.9956    10.8715    52.6064 H     285 HOH   0.0000 
 855 H2     -21.2459    11.5185    53.2534 H     285 HOH   0.0000 
 856 O       11.4935    39.2554    50.6475 O.3   286 HOH  -0.8340 
 857 H1      11.7108    40.0310    51.1647 H     286 HOH   0.4170 
 858 H2      11.7440    38.5179    51.2040 H     286 HOH   0.4170 
 859 O      -24.7473     2.1002    25.2511 O.3   287 HOH   0.0000 
 860 H1     -23.7873     2.1002    25.2511 H     287 HOH   0.0000 
 861 H2     -25.0376     2.7472    25.8981 H     287 HOH   0.0000 
 862 O      -19.0024    10.7609    34.8504 O.3   288 HOH   0.0000 
 863 H1     -18.0424    10.7609    34.8504 H     288 HOH   0.0000 
 864 H2     -19.2926    11.4080    35.4974 H     288 HOH   0.0000 
 865 O      -17.5557    15.3865    52.6917 O.3   289 HOH  -0.8340 
 866 H1     -17.0344    14.5854    52.6400 H     289 HOH   0.4170 
 867 H2     -16.9251    16.0927    52.5514 H     289 HOH   0.4170 
 868 O      -20.5368    12.4829    34.4652 O.3   290 HOH   0.0000 
 869 H1     -19.5768    12.4829    34.4652 H     290 HOH   0.0000 
 870 H2     -20.8271    13.1300    35.1122 H     290 HOH   0.0000 
 871 O        1.3085    44.7792    33.4787 O.3   291 HOH   0.0000 
 872 H1       2.2685    44.7792    33.4787 H     291 HOH   0.0000 
 873 H2       1.0182    45.4263    34.1257 H     291 HOH   0.0000 
 874 O        6.4409     4.2732    29.3865 O.3   292 HOH   0.0000 
 875 H1       7.4009     4.2732    29.3865 H     292 HOH   0.0000 
 876 H2       6.1506     4.9202    30.0335 H     292 HOH   0.0000 
 877 O      -22.0607    26.6596    21.4192 O.3   293 HOH   0.0000 
 878 H1     -21.1007    26.6596    21.4192 H     293 HOH   0.0000 
 879 H2     -22.3510    27.3067    22.0662 H     293 HOH   0.0000 
 880 O        4.3656    25.0345    25.6705 O.3   294 HOH  -0.8340 
 881 H1       4.7491    24.2208    25.9978 H     294 HOH   0.4170 
 882 H2       5.1178    25.5688    25.4155 H     294 HOH   0.4170 
 883 O      -13.1008    -5.6058    28.6150 O.3   295 HOH   0.0000 
 884 H1     -12.1408    -5.6058    28.6150 H     295 HOH   0.0000 
 885 H2     -13.3911    -4.9588    29.2621 H     295 HOH   0.0000 
 886 O       11.2512    36.4135    29.6170 O.3   296 HOH   0.0000 
 887 H1      12.2112    36.4135    29.6170 H     296 HOH   0.0000 
 888 H2      10.9610    37.0605    30.2640 H     296 HOH   0.0000 
 889 O       11.7048    34.1116    29.7161 O.3   297 HOH   0.0000 
 890 H1      12.6648    34.1116    29.7161 H     297 HOH   0.0000 
 891 H2      11.4145    34.7586    30.3631 H     297 HOH   0.0000 
 892 O      -21.1826    18.5818    42.9749 O.3   298 HOH   0.0000 
 893 H1     -20.2226    18.5818    42.9749 H     298 HOH   0.0000 
 894 H2     -21.4729    19.2289    43.6219 H     298 HOH   0.0000 
 895 O      -13.9173    31.0130    28.3830 O.3   299 HOH   0.0000 
 896 H1     -12.9573    31.0130    28.3830 H     299 HOH   0.0000 
 897 H2     -14.2076    31.6601    29.0300 H     299 HOH   0.0000 
 898 O       11.0557    14.5385    34.0045 O.3   300 HOH   0.0000 
 899 H1      12.0157    14.5385    34.0045 H     300 HOH   0.0000 
 900 H2      10.7654    15.1855    34.6515 H     300 HOH   0.0000 
 901 O        7.9504    18.7284    25.4169 O.3   301 HOH   0.0000 
 902 H1       8.9104    18.7284    25.4169 H     301 HOH   0.0000 
 903 H2       7.6602    19.3755    26.0640 H     301 HOH   0.0000 
 904 O        0.8918    20.9274    52.3007 O.3   302 HOH   0.0000 
 905 H1       1.8518    20.9274    52.3007 H     302 HOH   0.0000 
 906 H2       0.6016    21.5745    52.9478 H     302 HOH   0.0000 
 907 O       -1.8836    13.4297    47.5363 O.3   303 HOH  -0.8340 
 908 H1      -2.0845    13.9512    46.7592 H     303 HOH   0.4170 
 909 H2      -2.3009    12.5840    47.3723 H     303 HOH   0.4170 
 910 O       -1.5960     3.1749    28.9692 O.3   304 HOH   0.0000 
 911 H1      -0.6360     3.1749    28.9692 H     304 HOH   0.0000 
 912 H2      -1.8863     3.8220    29.6163 H     304 HOH   0.0000 
 913 O        0.8921    15.5084    48.1728 O.3   305 HOH  -0.8340 
 914 H1       0.3573    16.2990    48.2444 H     305 HOH   0.4170 
 915 H2       1.2613    15.5475    47.2905 H     305 HOH   0.4170 
 916 O      -16.9583     1.4863    37.0809 O.3   306 HOH   0.0000 
 917 H1     -15.9983     1.4863    37.0809 H     306 HOH   0.0000 
 918 H2     -17.2486     2.1333    37.7279 H     306 HOH   0.0000 
 919 O       -7.1109    20.3569    53.9542 O.3   307 HOH   0.0000 
 920 H1      -6.1509    20.3569    53.9542 H     307 HOH   0.0000 
 921 H2      -7.4011    21.0040    54.6013 H     307 HOH   0.0000 
 922 O        9.9787    32.0677    25.0516 O.3   308 HOH   0.0000 
 923 H1      10.9387    32.0677    25.0516 H     308 HOH   0.0000 
 924 H2       9.6884    32.7148    25.6986 H     308 HOH   0.0000 
 925 O       -3.8323    36.9022    31.8515 O.3   309 HOH   0.0000 
 926 H1      -2.8723    36.9022    31.8515 H     309 HOH   0.0000 
 927 H2      -4.1226    37.5493    32.4985 H     309 HOH   0.0000 
 928 O        5.6719    21.4331    27.4541 O.3   310 HOH  -0.8340 
 929 H1       6.4500    21.7663    27.9010 H     310 HOH   0.4170 
 930 H2       4.9380    21.8401    27.9144 H     310 HOH   0.4170 
 931 O        1.9785    14.0613    46.5967 O.3   311 HOH  -0.8340 
 932 H1       1.3094    13.7141    46.0068 H     311 HOH   0.4170 
 933 H2       1.6122    13.9404    47.4728 H     311 HOH   0.4170 
 934 O       13.4774    14.7071    33.8178 O.3   312 HOH   0.0000 
 935 H1      14.4374    14.7071    33.8178 H     312 HOH   0.0000 
 936 H2      13.1871    15.3542    34.4649 H     312 HOH   0.0000 
 937 O       -9.5373    26.5119    16.1515 O.3   313 HOH   0.0000 
 938 H1      -8.5773    26.5119    16.1515 H     313 HOH   0.0000 
 939 H2      -9.8276    27.1590    16.7985 H     313 HOH   0.0000 
 940 O      -10.3313    34.6634    36.2242 O.3   314 HOH   0.0000 
 941 H1      -9.3713    34.6634    36.2242 H     314 HOH   0.0000 
 942 H2     -10.6216    35.3104    36.8712 H     314 HOH   0.0000 
 943 O      -11.6244    -7.7262    27.4987 O.3   315 HOH   0.0000 
 944 H1     -10.6644    -7.7262    27.4987 H     315 HOH   0.0000 
 945 H2     -11.9147    -7.0792    28.1457 H     315 HOH   0.0000 
 946 O       -5.1875    -6.6612    11.1577 O.3   316 HOH   0.0000 
 947 H1      -4.2275    -6.6612    11.1577 H     316 HOH   0.0000 
 948 H2      -5.4777    -6.0141    11.8048 H     316 HOH   0.0000 
 949 O      -11.1124     0.0917    44.6560 O.3   317 HOH   0.0000 
 950 H1     -10.1524     0.0917    44.6560 H     317 HOH   0.0000 
 951 H2     -11.4026     0.7388    45.3031 H     317 HOH   0.0000 
 952 O       -7.5733    -5.3656    15.7592 O.3   318 HOH   0.0000 
 953 H1      -6.6133    -5.3656    15.7592 H     318 HOH   0.0000 
 954 H2      -7.8636    -4.7185    16.4062 H     318 HOH   0.0000 
 955 O      -12.7498    30.1008    18.9474 O.3   319 HOH   0.0000 
 956 H1     -11.7898    30.1008    18.9474 H     319 HOH   0.0000 
 957 H2     -13.0401    30.7478    19.5944 H     319 HOH   0.0000 
 958 O        6.8075    44.2078    38.1789 O.3   320 HOH   0.0000 
 959 H1       7.7675    44.2078    38.1789 H     320 HOH   0.0000 
 960 H2       6.5172    44.8549    38.8260 H     320 HOH   0.0000 
 961 O      -22.7550     8.0084    52.6423 O.3   321 HOH   0.0000 
 962 H1     -21.7950     8.0084    52.6423 H     321 HOH   0.0000 
 963 H2     -23.0452     8.6554    53.2894 H     321 HOH   0.0000 
 964 O       -6.8543    17.1987    10.6003 O.3   322 HOH   0.0000 
 965 H1      -5.8943    17.1987    10.6003 H     322 HOH   0.0000 
 966 H2      -7.1446    17.8457    11.2474 H     322 HOH   0.0000 
 967 O       -7.2819    14.7579     9.8173 O.3   323 HOH   0.0000 
 968 H1      -6.3219    14.7579     9.8173 H     323 HOH   0.0000 
 969 H2      -7.5722    15.4049    10.4643 H     323 HOH   0.0000 
 970 O        0.9558    23.6192    20.6404 O.3   324 HOH  -0.8340 
 971 H1       0.5170    24.2755    21.1818 H     324 HOH   0.4170 
 972 H2       1.6443    24.1046    20.1858 H     324 HOH   0.4170 
 973 O       -5.9299    37.3148    30.8452 O.3   325 HOH   0.0000 
 974 H1      -4.9699    37.3148    30.8452 H     325 HOH   0.0000 
 975 H2      -6.2202    37.9618    31.4922 H     325 HOH   0.0000 
 976 O      -10.7187    23.6534    16.2869 O.3   326 HOH   0.0000 
 977 H1      -9.7587    23.6534    16.2869 H     326 HOH   0.0000 
 978 H2     -11.0089    24.3005    16.9339 H     326 HOH   0.0000 
 979 O        3.0940    17.5336    25.7339 O.3   327 HOH  -0.8340 
 980 H1       2.3264    17.9816    26.0894 H     327 HOH   0.4170 
 981 H2       3.6915    17.4545    26.4775 H     327 HOH   0.4170 
 982 O      -16.4381    -3.3369    16.7642 O.3   328 HOH   0.0000 
 983 H1     -15.4781    -3.3369    16.7642 H     328 HOH   0.0000 
 984 H2     -16.7284    -2.6899    17.4113 H     328 HOH   0.0000 
 985 O      -19.9064    13.1001    52.7739 O.3   329 HOH   0.0000 
 986 H1     -18.9464    13.1001    52.7739 H     329 HOH   0.0000 
 987 H2     -20.1967    13.7471    53.4209 H     329 HOH   0.0000 
 988 O      -20.3189    27.5431    19.8829 O.3   330 HOH   0.0000 
 989 H1     -19.3589    27.5431    19.8829 H     330 HOH   0.0000 
 990 H2     -20.6091    28.1901    20.5299 H     330 HOH   0.0000 
 991 O        5.7172    19.0908    27.2231 O.3   331 HOH  -0.8340 
 992 H1       6.1432    19.8568    26.8383 H     331 HOH   0.4170 
 993 H2       5.1827    19.4452    27.9336 H     331 HOH   0.4170 
 994 O      -10.6991    31.2256    41.0331 O.3   332 HOH   0.0000 
 995 H1      -9.7391    31.2256    41.0331 H     332 HOH   0.0000 
 996 H2     -10.9894    31.8726    41.6802 H     332 HOH   0.0000 
 997 O      -14.0662    26.0385    16.9937 O.3   333 HOH   0.0000 
 998 H1     -13.1062    26.0385    16.9937 H     333 HOH   0.0000 
 999 H2     -14.3565    26.6856    17.6408 H     333 HOH   0.0000 
1000 O      -11.8101    -1.4381    42.4124 O.3   334 HOH   0.0000 
1001 H1     -10.8501    -1.4381    42.4124 H     334 HOH   0.0000 
1002 H2     -12.1004    -0.7910    43.0594 H     334 HOH   0.0000 
1003 O      -18.6246     1.5850    46.2177 O.3   335 HOH   0.0000 
1004 H1     -17.6646     1.5850    46.2177 H     335 HOH   0.0000 
1005 H2     -18.9148     2.2320    46.8648 H     335 HOH   0.0000 
1006 O      -12.4855    21.5827    12.8031 O.3   336 HOH   0.0000 
1007 H1     -11.5255    21.5827    12.8031 H     336 HOH   0.0000 
1008 H2     -12.7757    22.2297    13.4501 H     336 HOH   0.0000 
1009 O        5.1348    27.5561    22.6573 O.3   337 HOH   0.0000 
1010 H1       6.0948    27.5561    22.6573 H     337 HOH   0.0000 
1011 H2       4.8446    28.2031    23.3043 H     337 HOH   0.0000 
1012 O       12.9568    13.9771    21.2767 O.3   338 HOH  -0.8340 
1013 H1      12.1559    14.0666    20.7602 H     338 HOH   0.4170 
1014 H2      12.6731    13.5567    22.0885 H     338 HOH   0.4170 
1015 O       10.0398    19.9557    31.6062 O.3   339 HOH   0.0000 
1016 H1      10.9998    19.9557    31.6062 H     339 HOH   0.0000 
1017 H2       9.7495    20.6027    32.2533 H     339 HOH   0.0000 
1018 O      -17.2025    10.5124    56.7621 O.3   340 HOH   0.0000 
1019 H1     -16.2425    10.5124    56.7621 H     340 HOH   0.0000 
1020 H2     -17.4927    11.1594    57.4092 H     340 HOH   0.0000 
1021 O       20.0733    28.4823    44.4515 O.3   341 HOH   0.0000 
1022 H1      21.0333    28.4823    44.4515 H     341 HOH   0.0000 
1023 H2      19.7831    29.1293    45.0985 H     341 HOH   0.0000 
1024 O       21.8921    27.9114    42.6314 O.3   342 HOH   0.0000 
1025 H1      22.8521    27.9114    42.6314 H     342 HOH   0.0000 
1026 H2      21.6019    28.5585    43.2784 H     342 HOH   0.0000 
1027 O      -12.1442    23.6584    13.7688 O.3   343 HOH   0.0000 
1028 H1     -11.1842    23.6584    13.7688 H     343 HOH   0.0000 
1029 H2     -12.4345    24.3055    14.4158 H     343 HOH   0.0000 
1030 O        3.3902    26.1595    23.5298 O.3   344 HOH  -0.8340 
1031 H1       3.7321    25.5443    22.8811 H     344 HOH   0.4170 
1032 H2       3.7451    25.8510    24.3635 H     344 HOH   0.4170 
1033 O      -11.5153    22.8676    52.8578 O.3   345 HOH   0.0000 
1034 H1     -10.5553    22.8676    52.8578 H     345 HOH   0.0000 
1035 H2     -11.8056    23.5146    53.5048 H     345 HOH   0.0000 
1036 O       -1.8337    29.7847    46.3470 O.3   346 HOH   0.0000 
1037 H1      -0.8737    29.7847    46.3470 H     346 HOH   0.0000 
1038 H2      -2.1240    30.4318    46.9941 H     346 HOH   0.0000 
1039 O       -9.2653    18.6074     9.9885 O.3   347 HOH   0.0000 
1040 H1      -8.3053    18.6074     9.9885 H     347 HOH   0.0000 
1041 H2      -9.5556    19.2544    10.6356 H     347 HOH   0.0000 
1042 O        7.1183    31.3814    23.4812 O.3   348 HOH   0.0000 
1043 H1       8.0783    31.3814    23.4812 H     348 HOH   0.0000 
1044 H2       6.8280    32.0284    24.1282 H     348 HOH   0.0000 
1045 O        9.6602    47.7331    38.0439 O.3   349 HOH   0.0000 
1046 H1      10.6202    47.7331    38.0439 H     349 HOH   0.0000 
1047 H2       9.3699    48.3802    38.6910 H     349 HOH   0.0000 
1048 O       -1.5137    33.0674    46.4177 O.3   350 HOH   0.0000 
1049 H1      -0.5537    33.0674    46.4177 H     350 HOH   0.0000 
1050 H2      -1.8040    33.7144    47.0648 H     350 HOH   0.0000 
1051 O        9.5750    19.5405    28.2662 O.3   351 HOH   0.0000 
1052 H1      10.5350    19.5405    28.2662 H     351 HOH   0.0000 
1053 H2       9.2847    20.1876    28.9132 H     351 HOH   0.0000 
1054 O        0.7801    27.2677    23.1009 O.3   352 HOH  -0.8340 
1055 H1       1.7196    27.4505    23.1184 H     352 HOH   0.4170 
1056 H2       0.3987    27.9146    23.6944 H     352 HOH   0.4170 
1057 O      -12.8107    28.4126    42.7573 O.3   353 HOH   0.0000 
1058 H1     -11.8507    28.4126    42.7573 H     353 HOH   0.0000 
1059 H2     -13.1010    29.0597    43.4044 H     353 HOH   0.0000 
1060 O      -16.1428    -0.1647    32.4370 O.3   354 HOH   0.0000 
1061 H1     -15.1828    -0.1647    32.4370 H     354 HOH   0.0000 
1062 H2     -16.4330     0.4823    33.0840 H     354 HOH   0.0000 
1063 O        1.5909    36.1306    44.9801 O.3   355 HOH  -0.8340 
1064 H1       1.8790    36.2864    44.0807 H     355 HOH   0.4170 
1065 H2       0.7368    36.5591    45.0361 H     355 HOH   0.4170 
1066 O        0.5638    35.2539    47.0811 O.3   356 HOH   0.0000 
1067 H1       1.5238    35.2539    47.0811 H     356 HOH   0.0000 
1068 H2       0.2736    35.9009    47.7282 H     356 HOH   0.0000 
1069 O        1.8370   -11.3084    22.2405 O.3   357 HOH   0.0000 
1070 H1       2.7970   -11.3084    22.2405 H     357 HOH   0.0000 
1071 H2       1.5467   -10.6614    22.8875 H     357 HOH   0.0000 
1072 O      -25.3784    -1.6775    35.0373 O.3   358 HOH   0.0000 
1073 H1     -24.4184    -1.6775    35.0373 H     358 HOH   0.0000 
1074 H2     -25.6687    -1.0305    35.6843 H     358 HOH   0.0000 
1075 O       25.5495    50.3651    34.3094 O.3   359 HOH   0.0000 
1076 H1      26.5095    50.3651    34.3094 H     359 HOH   0.0000 
1077 H2      25.2592    51.0121    34.9564 H     359 HOH   0.0000 
1078 O        0.1501    39.0304    41.7972 O.3   360 HOH  -0.8340 
1079 H1       0.5336    38.2168    42.1245 H     360 HOH   0.4170 
1080 H2       0.9023    39.5647    41.5422 H     360 HOH   0.4170 
1081 O       -8.3490    -7.5389    21.4675 O.3   361 HOH   0.0000 
1082 H1      -7.3890    -7.5389    21.4675 H     361 HOH   0.0000 
1083 H2      -8.6393    -6.8919    22.1145 H     361 HOH   0.0000 
1084 O       -0.3572    19.4587    54.6559 O.3   362 HOH   0.0000 
1085 H1       0.6028    19.4587    54.6559 H     362 HOH   0.0000 
1086 H2      -0.6475    20.1057    55.3030 H     362 HOH   0.0000 
1087 O       -3.1084    30.3747    48.6590 O.3   363 HOH   0.0000 
1088 H1      -2.1484    30.3747    48.6590 H     363 HOH   0.0000 
1089 H2      -3.3986    31.0218    49.3061 H     363 HOH   0.0000 
1090 O      -14.8706    -2.9131    31.8250 O.3   364 HOH   0.0000 
1091 H1     -13.9106    -2.9131    31.8250 H     364 HOH   0.0000 
1092 H2     -15.1609    -2.2661    32.4720 H     364 HOH   0.0000 
1093 O       10.8176    47.6636    41.5655 O.3   365 HOH   0.0000 
1094 H1      11.7776    47.6636    41.5655 H     365 HOH   0.0000 
1095 H2      10.5273    48.3107    42.2125 H     365 HOH   0.0000 
@<TRIPOS>BOND
  1    1    2  1   
  2    1    3  1   
  3    4    5  1   
  4    4    6  1   
  5    7    8  1   
  6    7    9  1   
  7   10   11  1   
  8   10   12  1   
  9   13   14  1   
 10   13   15  1   
 11   16   17  1   
 12   16   18  1   
 13   19   20  1   
 14   19   21  1   
 15   22   23  1   
 16   22   24  1   
 17   25   26  1   
 18   25   27  1   
 19   28   29  1   
 20   28   30  1   
 21   31   32  1   
 22   31   33  1   
 23   34   35  1   
 24   34   36  1   
 25   37   38  1   
 26   37   39  1   
 27   40   41  1   
 28   40   42  1   
 29   43   44  1   
 30   43   45  1   
 31   46   47  1   
 32   46   48  1   
 33   49   50  1   
 34   49   51  1   
 35   52   53  1   
 36   52   54  1   
 37   55   56  1   
 38   55   57  1   
 39   58   59  1   
 40   58   60  1   
 41   61   62  1   
 42   61   63  1   
 43   64   65  1   
 44   64   66  1   
 45   67   68  1   
 46   67   69  1   
 47   70   71  1   
 48   70   72  1   
 49   73   74  1   
 50   73   75  1   
 51   76   77  1   
 52   76   78  1   
 53   79   80  1   
 54   79   81  1   
 55   82   83  1   
 56   82   84  1   
 57   85   86  1   
 58   85   87  1   
 59   88   89  1   
 60   88   90  1   
 61   91   92  1   
 62   91   93  1   
 63   94   95  1   
 64   94   96  1   
 65   97   98  1   
 66   97   99  1   
 67  100  101  1   
 68  100  102  1   
 69  103  104  1   
 70  103  105  1   
 71  106  107  1   
 72  106  108  1   
 73  109  110  1   
 74  109  111  1   
 75  112  113  1   
 76  112  114  1   
 77  115  116  1   
 78  115  117  1   
 79  118  119  1   
 80  118  120  1   
 81  121  122  1   
 82  121  123  1   
 83  124  125  1   
 84  124  126  1   
 85  127  128  1   
 86  127  129  1   
 87  130  131  1   
 88  130  132  1   
 89  133  134  1   
 90  133  135  1   
 91  136  137  1   
 92  136  138  1   
 93  139  140  1   
 94  139  141  1   
 95  142  143  1   
 96  142  144  1   
 97  145  146  1   
 98  145  147  1   
 99  148  149  1   
100  148  150  1   
101  151  152  1   
102  151  153  1   
103  154  155  1   
104  154  156  1   
105  157  158  1   
106  157  159  1   
107  160  161  1   
108  160  162  1   
109  163  164  1   
110  163  165  1   
111  166  167  1   
112  166  168  1   
113  169  170  1   
114  169  171  1   
115  172  173  1   
116  172  174  1   
117  175  176  1   
118  175  177  1   
119  178  179  1   
120  178  180  1   
121  181  182  1   
122  181  183  1   
123  184  185  1   
124  184  186  1   
125  187  188  1   
126  187  189  1   
127  190  191  1   
128  190  192  1   
129  193  194  1   
130  193  195  1   
131  196  197  1   
132  196  198  1   
133  199  200  1   
134  199  201  1   
135  202  203  1   
136  202  204  1   
137  205  206  1   
138  205  207  1   
139  208  209  1   
140  208  210  1   
141  211  212  1   
142  211  213  1   
143  214  215  1   
144  214  216  1   
145  217  218  1   
146  217  219  1   
147  220  221  1   
148  220  222  1   
149  223  224  1   
150  223  225  1   
151  226  227  1   
152  226  228  1   
153  229  230  1   
154  229  231  1   
155  232  233  1   
156  232  234  1   
157  235  236  1   
158  235  237  1   
159  238  239  1   
160  238  240  1   
161  241  242  1   
162  241  243  1   
163  244  245  1   
164  244  246  1   
165  247  248  1   
166  247  249  1   
167  250  251  1   
168  250  252  1   
169  253  254  1   
170  253  255  1   
171  256  257  1   
172  256  258  1   
173  259  260  1   
174  259  261  1   
175  262  263  1   
176  262  264  1   
177  265  266  1   
178  265  267  1   
179  268  269  1   
180  268  270  1   
181  271  272  1   
182  271  273  1   
183  274  275  1   
184  274  276  1   
185  277  278  1   
186  277  279  1   
187  280  281  1   
188  280  282  1   
189  283  284  1   
190  283  285  1   
191  286  287  1   
192  286  288  1   
193  289  290  1   
194  289  291  1   
195  292  293  1   
196  292  294  1   
197  295  296  1   
198  295  297  1   
199  298  299  1   
200  298  300  1   
201  301  302  1   
202  301  303  1   
203  304  305  1   
204  304  306  1   
205  307  308  1   
206  307  309  1   
207  310  311  1   
208  310  312  1   
209  313  314  1   
210  313  315  1   
211  316  317  1   
212  316  318  1   
213  319  320  1   
214  319  321  1   
215  322  323  1   
216  322  324  1   
217  325  326  1   
218  325  327  1   
219  328  329  1   
220  328  330  1   
221  331  332  1   
222  331  333  1   
223  334  335  1   
224  334  336  1   
225  337  338  1   
226  337  339  1   
227  340  341  1   
228  340  342  1   
229  343  344  1   
230  343  345  1   
231  346  347  1   
232  346  348  1   
233  349  350  1   
234  349  351  1   
235  352  353  1   
236  352  354  1   
237  355  356  1   
238  355  357  1   
239  358  359  1   
240  358  360  1   
241  361  362  1   
242  361  363  1   
243  364  365  1   
244  364  366  1   
245  367  368  1   
246  367  369  1   
247  370  371  1   
248  370  372  1   
249  373  374  1   
250  373  375  1   
251  376  377  1   
252  376  378  1   
253  379  380  1   
254  379  381  1   
255  382  383  1   
256  382  384  1   
257  385  386  1   
258  385  387  1   
259  388  389  1   
260  388  390  1   
261  391  392  1   
262  391  393  1   
263  394  395  1   
264  394  396  1   
265  397  398  1   
266  397  399  1   
267  400  401  1   
268  400  402  1   
269  403  404  1   
270  403  405  1   
271  406  407  1   
272  406  408  1   
273  409  410  1   
274  409  411  1   
275  412  413  1   
276  412  414  1   
277  415  416  1   
278  415  417  1   
279  418  419  1   
280  418  420  1   
281  421  422  1   
282  421  423  1   
283  424  425  1   
284  424  426  1   
285  427  428  1   
286  427  429  1   
287  430  431  1   
288  430  432  1   
289  433  434  1   
290  433  435  1   
291  436  437  1   
292  436  438  1   
293  439  440  1   
294  439  441  1   
295  442  443  1   
296  442  444  1   
297  445  446  1   
298  445  447  1   
299  448  449  1   
300  448  450  1   
301  451  452  1   
302  451  453  1   
303  454  455  1   
304  454  456  1   
305  457  458  1   
306  457  459  1   
307  460  461  1   
308  460  462  1   
309  463  464  1   
310  463  465  1   
311  466  467  1   
312  466  468  1   
313  469  470  1   
314  469  471  1   
315  472  473  1   
316  472  474  1   
317  475  476  1   
318  475  477  1   
319  478  479  1   
320  478  480  1   
321  481  482  1   
322  481  483  1   
323  484  485  1   
324  484  486  1   
325  487  488  1   
326  487  489  1   
327  490  491  1   
328  490  492  1   
329  493  494  1   
330  493  495  1   
331  496  497  1   
332  496  498  1   
333  499  500  1   
334  499  501  1   
335  502  503  1   
336  502  504  1   
337  505  506  1   
338  505  507  1   
339  508  509  1   
340  508  510  1   
341  511  512  1   
342  511  513  1   
343  514  515  1   
344  514  516  1   
345  517  518  1   
346  517  519  1   
347  520  521  1   
348  520  522  1   
349  523  524  1   
350  523  525  1   
351  526  527  1   
352  526  528  1   
353  529  530  1   
354  529  531  1   
355  532  533  1   
356  532  534  1   
357  535  536  1   
358  535  537  1   
359  538  539  1   
360  538  540  1   
361  541  542  1   
362  541  543  1   
363  544  545  1   
364  544  546  1   
365  547  548  1   
366  547  549  1   
367  550  551  1   
368  550  552  1   
369  553  554  1   
370  553  555  1   
371  556  557  1   
372  556  558  1   
373  559  560  1   
374  559  561  1   
375  562  563  1   
376  562  564  1   
377  565  566  1   
378  565  567  1   
379  568  569  1   
380  568  570  1   
381  571  572  1   
382  571  573  1   
383  574  575  1   
384  574  576  1   
385  577  578  1   
386  577  579  1   
387  580  581  1   
388  580  582  1   
389  583  584  1   
390  583  585  1   
391  586  587  1   
392  586  588  1   
393  589  590  1   
394  589  591  1   
395  592  593  1   
396  592  594  1   
397  595  596  1   
398  595  597  1   
399  598  599  1   
400  598  600  1   
401  601  602  1   
402  601  603  1   
403  604  605  1   
404  604  606  1   
405  607  608  1   
406  607  609  1   
407  610  611  1   
408  610  612  1   
409  613  614  1   
410  613  615  1   
411  616  617  1   
412  616  618  1   
413  619  620  1   
414  619  621  1   
415  622  623  1   
416  622  624  1   
417  625  626  1   
418  625  627  1   
419  628  629  1   
420  628  630  1   
421  631  632  1   
422  631  633  1   
423  634  635  1   
424  634  636  1   
425  637  638  1   
426  637  639  1   
427  640  641  1   
428  640  642  1   
429  643  644  1   
430  643  645  1   
431  646  647  1   
432  646  648  1   
433  649  650  1   
434  649  651  1   
435  652  653  1   
436  652  654  1   
437  655  656  1   
438  655  657  1   
439  658  659  1   
440  658  660  1   
441  661  662  1   
442  661  663  1   
443  664  665  1   
444  664  666  1   
445  667  668  1   
446  667  669  1   
447  670  671  1   
448  670  672  1   
449  673  674  1   
450  673  675  1   
451  676  677  1   
452  676  678  1   
453  679  680  1   
454  679  681  1   
455  682  683  1   
456  682  684  1   
457  685  686  1   
458  685  687  1   
459  688  689  1   
460  688  690  1   
461  691  692  1   
462  691  693  1   
463  694  695  1   
464  694  696  1   
465  697  698  1   
466  697  699  1   
467  700  701  1   
468  700  702  1   
469  703  704  1   
470  703  705  1   
471  706  707  1   
472  706  708  1   
473  709  710  1   
474  709  711  1   
475  712  713  1   
476  712  714  1   
477  715  716  1   
478  715  717  1   
479  718  719  1   
480  718  720  1   
481  721  722  1   
482  721  723  1   
483  724  725  1   
484  724  726  1   
485  727  728  1   
486  727  729  1   
487  730  731  1   
488  730  732  1   
489  733  734  1   
490  733  735  1   
491  736  737  1   
492  736  738  1   
493  739  740  1   
494  739  741  1   
495  742  743  1   
496  742  744  1   
497  745  746  1   
498  745  747  1   
499  748  749  1   
500  748  750  1   
501  751  752  1   
502  751  753  1   
503  754  755  1   
504  754  756  1   
505  757  758  1   
506  757  759  1   
507  760  761  1   
508  760  762  1   
509  763  764  1   
510  763  765  1   
511  766  767  1   
512  766  768  1   
513  769  770  1   
514  769  771  1   
515  772  773  1   
516  772  774  1   
517  775  776  1   
518  775  777  1   
519  778  779  1   
520  778  780  1   
521  781  782  1   
522  781  783  1   
523  784  785  1   
524  784  786  1   
525  787  788  1   
526  787  789  1   
527  790  791  1   
528  790  792  1   
529  793  794  1   
530  793  795  1   
531  796  797  1   
532  796  798  1   
533  799  800  1   
534  799  801  1   
535  802  803  1   
536  802  804  1   
537  805  806  1   
538  805  807  1   
539  808  809  1   
540  808  810  1   
541  811  812  1   
542  811  813  1   
543  814  815  1   
544  814  816  1   
545  817  818  1   
546  817  819  1   
547  820  821  1   
548  820  822  1   
549  823  824  1   
550  823  825  1   
551  826  827  1   
552  826  828  1   
553  829  830  1   
554  829  831  1   
555  832  833  1   
556  832  834  1   
557  835  836  1   
558  835  837  1   
559  838  839  1   
560  838  840  1   
561  841  842  1   
562  841  843  1   
563  844  845  1   
564  844  846  1   
565  847  848  1   
566  847  849  1   
567  850  851  1   
568  850  852  1   
569  853  854  1   
570  853  855  1   
571  856  857  1   
572  856  858  1   
573  859  860  1   
574  859  861  1   
575  862  863  1   
576  862  864  1   
577  865  866  1   
578  865  867  1   
579  868  869  1   
580  868  870  1   
581  871  872  1   
582  871  873  1   
583  874  875  1   
584  874  876  1   
585  877  878  1   
586  877  879  1   
587  880  881  1   
588  880  882  1   
589  883  884  1   
590  883  885  1   
591  886  887  1   
592  886  888  1   
593  889  890  1   
594  889  891  1   
595  892  893  1   
596  892  894  1   
597  895  896  1   
598  895  897  1   
599  898  899  1   
600  898  900  1   
601  901  902  1   
602  901  903  1   
603  904  905  1   
604  904  906  1   
605  907  908  1   
606  907  909  1   
607  910  911  1   
608  910  912  1   
609  913  914  1   
610  913  915  1   
611  916  917  1   
612  916  918  1   
613  919  920  1   
614  919  921  1   
615  922  923  1   
616  922  924  1   
617  925  926  1   
618  925  927  1   
619  928  929  1   
620  928  930  1   
621  931  932  1   
622  931  933  1   
623  934  935  1   
624  934  936  1   
625  937  938  1   
626  937  939  1   
627  940  941  1   
628  940  942  1   
629  943  944  1   
630  943  945  1   
631  946  947  1   
632  946  948  1   
633  949  950  1   
634  949  951  1   
635  952  953  1   
636  952  954  1   
637  955  956  1   
638  955  957  1   
639  958  959  1   
640  958  960  1   
641  961  962  1   
642  961  963  1   
643  964  965  1   
644  964  966  1   
645  967  968  1   
646  967  969  1   
647  970  971  1   
648  970  972  1   
649  973  974  1   
650  973  975  1   
651  976  977  1   
652  976  978  1   
653  979  980  1   
654  979  981  1   
655  982  983  1   
656  982  984  1   
657  985  986  1   
658  985  987  1   
659  988  989  1   
660  988  990  1   
661  991  992  1   
662  991  993  1   
663  994  995  1   
664  994  996  1   
665  997  998  1   
666  997  999  1   
667 1000 1001  1   
668 1000 1002  1   
669 1003 1004  1   
670 1003 1005  1   
671 1006 1007  1   
672 1006 1008  1   
673 1009 1010  1   
674 1009 1011  1   
675 1012 1013  1   
676 1012 1014  1   
677 1015 1016  1   
678 1015 1017  1   
679 1018 1019  1   
680 1018 1020  1   
681 1021 1022  1   
682 1021 1023  1   
683 1024 1025  1   
684 1024 1026  1   
685 1027 1028  1   
686 1027 1029  1   
687 1030 1031  1   
688 1030 1032  1   
689 1033 1034  1   
690 1033 1035  1   
691 1036 1037  1   
692 1036 1038  1   
693 1039 1040  1   
694 1039 1041  1   
695 1042 1043  1   
696 1042 1044  1   
697 1045 1046  1   
698 1045 1047  1   
699 1048 1049  1   
700 1048 1050  1   
701 1051 1052  1   
702 1051 1053  1   
703 1054 1055  1   
704 1054 1056  1   
705 1057 1058  1   
706 1057 1059  1   
707 1060 1061  1   
708 1060 1062  1   
709 1063 1064  1   
710 1063 1065  1   
711 1066 1067  1   
712 1066 1068  1   
713 1069 1070  1   
714 1069 1071  1   
715 1072 1073  1   
716 1072 1074  1   
717 1075 1076  1   
718 1075 1077  1   
719 1078 1079  1   
720 1078 1080  1   
721 1081 1082  1   
722 1081 1083  1   
723 1084 1085  1   
724 1084 1086  1   
725 1087 1088  1   
726 1087 1089  1   
727 1090 1091  1   
728 1090 1092  1   
729 1093 1094  1   
730 1093 1095  1   
@<TRIPOS>SUBSTRUCTURE
  1 HOH    1 GROUP 4 A **** 0
  2 HOH    4 GROUP 4 A **** 0
  3 HOH    7 GROUP 4 A **** 0
  4 HOH   10 GROUP 4 A **** 0
  5 HOH   13 GROUP 4 A **** 0
  6 HOH   16 GROUP 4 A **** 0
  7 HOH   19 GROUP 4 A **** 0
  8 HOH   22 GROUP 4 A **** 0
  9 HOH   25 GROUP 4 A **** 0
 10 HOH   28 GROUP 4 A **** 0
 11 HOH   31 GROUP 4 A **** 0
 12 HOH   34 GROUP 4 A **** 0
 13 HOH   37 GROUP 4 A **** 0
 14 HOH   40 GROUP 4 A **** 0
 15 HOH   43 GROUP 4 A **** 0
 16 HOH   46 GROUP 4 A **** 0
 17 HOH   49 GROUP 4 A **** 0
 18 HOH   52 GROUP 4 A **** 0
 19 HOH   55 GROUP 4 A **** 0
 20 HOH   58 GROUP 4 A **** 0
 21 HOH   61 GROUP 4 A **** 0
 22 HOH   64 GROUP 4 A **** 0
 23 HOH   67 GROUP 4 A **** 0
 24 HOH   70 GROUP 4 A **** 0
 25 HOH   73 GROUP 4 A **** 0
 26 HOH   76 GROUP 4 A **** 0
 27 HOH   79 GROUP 4 A **** 0
 28 HOH   82 GROUP 4 A **** 0
 29 HOH   85 GROUP 4 A **** 0
 30 HOH   88 GROUP 4 A **** 0
 31 HOH   91 GROUP 4 A **** 0
 32 HOH   94 GROUP 4 A **** 0
 33 HOH   97 GROUP 4 A **** 0
 34 HOH  100 GROUP 4 A **** 0
 35 HOH  103 GROUP 4 A **** 0
 36 HOH  106 GROUP 4 A **** 0
 37 HOH  109 GROUP 4 A **** 0
 38 HOH  112 GROUP 4 A **** 0
 39 HOH  115 GROUP 4 A **** 0
 40 HOH  118 GROUP 4 A **** 0
 41 HOH  121 GROUP 4 A **** 0
 42 HOH  124 GROUP 4 A **** 0
 43 HOH  127 GROUP 4 A **** 0
 44 HOH  130 GROUP 4 A **** 0
 45 HOH  133 GROUP 4 A **** 0
 46 HOH  136 GROUP 4 A **** 0
 47 HOH  139 GROUP 4 A **** 0
 48 HOH  142 GROUP 4 A **** 0
 49 HOH  145 GROUP 4 A **** 0
 50 HOH  148 GROUP 4 A **** 0
 51 HOH  151 GROUP 4 A **** 0
 52 HOH  154 GROUP 4 A **** 0
 53 HOH  157 GROUP 4 A **** 0
 54 HOH  160 GROUP 4 A **** 0
 55 HOH  163 GROUP 4 A **** 0
 56 HOH  166 GROUP 4 A **** 0
 57 HOH  169 GROUP 4 A **** 0
 58 HOH  172 GROUP 4 A **** 0
 59 HOH  175 GROUP 4 A **** 0
 60 HOH  178 GROUP 4 A **** 0
 61 HOH  181 GROUP 4 A **** 0
 62 HOH  184 GROUP 4 A **** 0
 63 HOH  187 GROUP 4 A **** 0
 64 HOH  190 GROUP 4 A **** 0
 65 HOH  193 GROUP 4 A **** 0
 66 HOH  196 GROUP 4 A **** 0
 67 HOH  199 GROUP 4 A **** 0
 68 HOH  202 GROUP 4 A **** 0
 69 HOH  205 GROUP 4 A **** 0
 70 HOH  208 GROUP 4 A **** 0
 71 HOH  211 GROUP 4 A **** 0
 72 HOH  214 GROUP 4 A **** 0
 73 HOH  217 GROUP 4 A **** 0
 74 HOH  220 GROUP 4 A **** 0
 75 HOH  223 GROUP 4 A **** 0
 76 HOH  226 GROUP 4 A **** 0
 77 HOH  229 GROUP 4 A **** 0
 78 HOH  232 GROUP 4 A **** 0
 79 HOH  235 GROUP 4 A **** 0
 80 HOH  238 GROUP 4 A **** 0
 81 HOH  241 GROUP 4 A **** 0
 82 HOH  244 GROUP 4 A **** 0
 83 HOH  247 GROUP 4 A **** 0
 84 HOH  250 GROUP 4 A **** 0
 85 HOH  253 GROUP 4 A **** 0
 86 HOH  256 GROUP 4 A **** 0
 87 HOH  259 GROUP 4 A **** 0
 88 HOH  262 GROUP 4 A **** 0
 89 HOH  265 GROUP 4 A **** 0
 90 HOH  268 GROUP 4 A **** 0
 91 HOH  271 GROUP 4 A **** 0
 92 HOH  274 GROUP 4 A **** 0
 93 HOH  277 GROUP 4 A **** 0
 94 HOH  280 GROUP 4 A **** 0
 95 HOH  283 GROUP 4 A **** 0
 96 HOH  286 GROUP 4 A **** 0
 97 HOH  289 GROUP 4 A **** 0
 98 HOH  292 GROUP 4 A **** 0
 99 HOH  295 GROUP 4 A **** 0
100 HOH  298 GROUP 4 A **** 0
101 HOH  301 GROUP 4 A **** 0
102 HOH  304 GROUP 4 A **** 0
103 HOH  307 GROUP 4 A **** 0
104 HOH  310 GROUP 4 A **** 0
105 HOH  313 GROUP 4 A **** 0
106 HOH  316 GROUP 4 A **** 0
107 HOH  319 GROUP 4 A **** 0
108 HOH  322 GROUP 4 A **** 0
109 HOH  325 GROUP 4 A **** 0
110 HOH  328 GROUP 4 A **** 0
111 HOH  331 GROUP 4 A **** 0
112 HOH  334 GROUP 4 A **** 0
113 HOH  337 GROUP 4 A **** 0
114 HOH  340 GROUP 4 A **** 0
115 HOH  343 GROUP 4 A **** 0
116 HOH  346 GROUP 4 A **** 0
117 HOH  349 GROUP 4 A **** 0
118 HOH  352 GROUP 4 A **** 0
119 HOH  355 GROUP 4 A **** 0
120 HOH  358 GROUP 4 A **** 0
121 HOH  361 GROUP 4 A **** 0
122 HOH  364 GROUP 4 A **** 0
123 HOH  367 GROUP 4 A **** 0
124 HOH  370 GROUP 4 A **** 0
125 HOH  373 GROUP 4 A **** 0
126 HOH  376 GROUP 4 A **** 0
127 HOH  379 GROUP 4 A **** 0
128 HOH  382 GROUP 4 A **** 0
129 HOH  385 GROUP 4 A **** 0
130 HOH  388 GROUP 4 A **** 0
131 HOH  391 GROUP 4 A **** 0
132 HOH  394 GROUP 4 A **** 0
133 HOH  397 GROUP 4 A **** 0
134 HOH  400 GROUP 4 A **** 0
135 HOH  403 GROUP 4 A **** 0
136 HOH  406 GROUP 4 A **** 0
137 HOH  409 GROUP 4 A **** 0
138 HOH  412 GROUP 4 A **** 0
139 HOH  415 GROUP 4 A **** 0
140 HOH  418 GROUP 4 A **** 0
141 HOH  421 GROUP 4 A **** 0
142 HOH  424 GROUP 4 A **** 0
143 HOH  427 GROUP 4 A **** 0
144 HOH  430 GROUP 4 A **** 0
145 HOH  433 GROUP 4 A **** 0
146 HOH  436 GROUP 4 A **** 0
147 HOH  439 GROUP 4 A **** 0
148 HOH  442 GROUP 4 A **** 0
149 HOH  445 GROUP 4 A **** 0
150 HOH  448 GROUP 4 A **** 0
151 HOH  451 GROUP 4 A **** 0
152 HOH  454 GROUP 4 A **** 0
153 HOH  457 GROUP 4 A **** 0
154 HOH  460 GROUP 4 A **** 0
155 HOH  463 GROUP 4 A **** 0
156 HOH  466 GROUP 4 A **** 0
157 HOH  469 GROUP 4 A **** 0
158 HOH  472 GROUP 4 A **** 0
159 HOH  475 GROUP 4 A **** 0
160 HOH  478 GROUP 4 A **** 0
161 HOH  481 GROUP 4 A **** 0
162 HOH  484 GROUP 4 A **** 0
163 HOH  487 GROUP 4 A **** 0
164 HOH  490 GROUP 4 A **** 0
165 HOH  493 GROUP 4 A **** 0
166 HOH  496 GROUP 4 A **** 0
167 HOH  499 GROUP 4 A **** 0
168 HOH  502 GROUP 4 A **** 0
169 HOH  505 GROUP 4 A **** 0
170 HOH  508 GROUP 4 A **** 0
171 HOH  511 GROUP 4 A **** 0
172 HOH  514 GROUP 4 A **** 0
173 HOH  517 GROUP 4 A **** 0
174 HOH  520 GROUP 4 A **** 0
175 HOH  523 GROUP 4 A **** 0
176 HOH  526 GROUP 4 A **** 0
177 HOH  529 GROUP 4 A **** 0
178 HOH  532 GROUP 4 A **** 0
179 HOH  535 GROUP 4 A **** 0
180 HOH  538 GROUP 4 A **** 0
181 HOH  541 GROUP 4 A **** 0
182 HOH  544 GROUP 4 A **** 0
183 HOH  547 GROUP 4 A **** 0
184 HOH  550 GROUP 4 A **** 0
185 HOH  553 GROUP 4 A **** 0
186 HOH  556 GROUP 4 A **** 0
187 HOH  559 GROUP 4 A **** 0
188 HOH  562 GROUP 4 A **** 0
189 HOH  565 GROUP 4 A **** 0
190 HOH  568 GROUP 4 A **** 0
191 HOH  571 GROUP 4 A **** 0
192 HOH  574 GROUP 4 A **** 0
193 HOH  577 GROUP 4 A **** 0
194 HOH  580 GROUP 4 A **** 0
195 HOH  583 GROUP 4 A **** 0
196 HOH  586 GROUP 4 A **** 0
197 HOH  589 GROUP 4 A **** 0
198 HOH  592 GROUP 4 A **** 0
199 HOH  595 GROUP 4 A **** 0
200 HOH  598 GROUP 4 A **** 0
201 HOH  601 GROUP 4 A **** 0
202 HOH  604 GROUP 4 A **** 0
203 HOH  607 GROUP 4 A **** 0
204 HOH  610 GROUP 4 A **** 0
205 HOH  613 GROUP 4 A **** 0
206 HOH  616 GROUP 4 A **** 0
207 HOH  619 GROUP 4 A **** 0
208 HOH  622 GROUP 4 A **** 0
209 HOH  625 GROUP 4 A **** 0
210 HOH  628 GROUP 4 A **** 0
211 HOH  631 GROUP 4 A **** 0
212 HOH  634 GROUP 4 A **** 0
213 HOH  637 GROUP 4 A **** 0
214 HOH  640 GROUP 4 A **** 0
215 HOH  643 GROUP 4 A **** 0
216 HOH  646 GROUP 4 A **** 0
217 HOH  649 GROUP 4 A **** 0
218 HOH  652 GROUP 4 A **** 0
219 HOH  655 GROUP 4 A **** 0
220 HOH  658 GROUP 4 A **** 0
221 HOH  661 GROUP 4 A **** 0
222 HOH  664 GROUP 4 A **** 0
223 HOH  667 GROUP 4 A **** 0
224 HOH  670 GROUP 4 A **** 0
225 HOH  673 GROUP 4 A **** 0
226 HOH  676 GROUP 4 A **** 0
227 HOH  679 GROUP 4 A **** 0
228 HOH  682 GROUP 4 A **** 0
229 HOH  685 GROUP 4 A **** 0
230 HOH  688 GROUP 4 A **** 0
231 HOH  691 GROUP 4 A **** 0
232 HOH  694 GROUP 4 A **** 0
233 HOH  697 GROUP 4 A **** 0
234 HOH  700 GROUP 4 A **** 0
235 HOH  703 GROUP 4 A **** 0
236 HOH  706 GROUP 4 A **** 0
237 HOH  709 GROUP 4 A **** 0
238 HOH  712 GROUP 4 A **** 0
239 HOH  715 GROUP 4 A **** 0
240 HOH  718 GROUP 4 A **** 0
241 HOH  721 GROUP 4 A **** 0
242 HOH  724 GROUP 4 A **** 0
243 HOH  727 GROUP 4 A **** 0
244 HOH  730 GROUP 4 A **** 0
245 HOH  733 GROUP 4 A **** 0
246 HOH  736 GROUP 4 A **** 0
247 HOH  739 GROUP 4 A **** 0
248 HOH  742 GROUP 4 A **** 0
249 HOH  745 GROUP 4 A **** 0
250 HOH  748 GROUP 4 A **** 0
251 HOH  751 GROUP 4 A **** 0
252 HOH  754 GROUP 4 A **** 0
253 HOH  757 GROUP 4 A **** 0
254 HOH  760 GROUP 4 A **** 0
255 HOH  763 GROUP 4 A **** 0
256 HOH  766 GROUP 4 A **** 0
257 HOH  769 GROUP 4 A **** 0
258 HOH  772 GROUP 4 A **** 0
259 HOH  775 GROUP 4 A **** 0
260 HOH  778 GROUP 4 A **** 0
261 HOH  781 GROUP 4 A **** 0
262 HOH  784 GROUP 4 A **** 0
263 HOH  787 GROUP 4 A **** 0
264 HOH  790 GROUP 4 A **** 0
265 HOH  793 GROUP 4 A **** 0
266 HOH  796 GROUP 4 A **** 0
267 HOH  799 GROUP 4 A **** 0
268 HOH  802 GROUP 4 A **** 0
269 HOH  805 GROUP 4 A **** 0
270 HOH  808 GROUP 4 A **** 0
271 HOH  811 GROUP 4 A **** 0
272 HOH  814 GROUP 4 A **** 0
273 HOH  817 GROUP 4 A **** 0
274 HOH  820 GROUP 4 A **** 0
275 HOH  823 GROUP 4 A **** 0
276 HOH  826 GROUP 4 A **** 0
277 HOH  829 GROUP 4 A **** 0
278 HOH  832 GROUP 4 A **** 0
279 HOH  835 GROUP 4 A **** 0
280 HOH  838 GROUP 4 A **** 0
281 HOH  841 GROUP 4 A **** 0
282 HOH  844 GROUP 4 A **** 0
283 HOH  847 GROUP 4 A **** 0
284 HOH  850 GROUP 4 A **** 0
285 HOH  853 GROUP 4 A **** 0
286 HOH  856 GROUP 4 A **** 0
287 HOH  859 GROUP 4 A **** 0
288 HOH  862 GROUP 4 A **** 0
289 HOH  865 GROUP 4 A **** 0
290 HOH  868 GROUP 4 A **** 0
291 HOH  871 GROUP 4 A **** 0
292 HOH  874 GROUP 4 A **** 0
293 HOH  877 GROUP 4 A **** 0
294 HOH  880 GROUP 4 A **** 0
295 HOH  883 GROUP 4 A **** 0
296 HOH  886 GROUP 4 A **** 0
297 HOH  889 GROUP 4 A **** 0
298 HOH  892 GROUP 4 A **** 0
299 HOH  895 GROUP 4 A **** 0
300 HOH  898 GROUP 4 A **** 0
301 HOH  901 GROUP 4 A **** 0
302 HOH  904 GROUP 4 A **** 0
303 HOH  907 GROUP 4 A **** 0
304 HOH  910 GROUP 4 A **** 0
305 HOH  913 GROUP 4 A **** 0
306 HOH  916 GROUP 4 A **** 0
307 HOH  919 GROUP 4 A **** 0
308 HOH  922 GROUP 4 A **** 0
309 HOH  925 GROUP 4 A **** 0
310 HOH  928 GROUP 4 A **** 0
311 HOH  931 GROUP 4 A **** 0
312 HOH  934 GROUP 4 A **** 0
313 HOH  937 GROUP 4 A **** 0
314 HOH  940 GROUP 4 A **** 0
315 HOH  943 GROUP 4 A **** 0
316 HOH  946 GROUP 4 A **** 0
317 HOH  949 GROUP 4 A **** 0
318 HOH  952 GROUP 4 A **** 0
319 HOH  955 GROUP 4 A **** 0
320 HOH  958 GROUP 4 A **** 0
321 HOH  961 GROUP 4 A **** 0
322 HOH  964 GROUP 4 A **** 0
323 HOH  967 GROUP 4 A **** 0
324 HOH  970 GROUP 4 A **** 0
325 HOH  973 GROUP 4 A **** 0
326 HOH  976 GROUP 4 A **** 0
327 HOH  979 GROUP 4 A **** 0
328 HOH  982 GROUP 4 A **** 0
329 HOH  985 GROUP 4 A **** 0
330 HOH  988 GROUP 4 A **** 0
331 HOH  991 GROUP 4 A **** 0
332 HOH  994 GROUP 4 A **** 0
333 HOH  997 GROUP 4 A **** 0
334 HOH 1000 GROUP 4 A **** 0
335 HOH 1003 GROUP 4 A **** 0
336 HOH 1006 GROUP 4 A **** 0
337 HOH 1009 GROUP 4 A **** 0
338 HOH 1012 GROUP 4 A **** 0
339 HOH 1015 GROUP 4 A **** 0
340 HOH 1018 GROUP 4 A **** 0
341 HOH 1021 GROUP 4 A **** 0
342 HOH 1024 GROUP 4 A **** 0
343 HOH 1027 GROUP 4 A **** 0
344 HOH 1030 GROUP 4 A **** 0
345 HOH 1033 GROUP 4 A **** 0
346 HOH 1036 GROUP 4 A **** 0
347 HOH 1039 GROUP 4 A **** 0
348 HOH 1042 GROUP 4 A **** 0
349 HOH 1045 GROUP 4 A **** 0
350 HOH 1048 GROUP 4 A **** 0
351 HOH 1051 GROUP 4 A **** 0
352 HOH 1054 GROUP 4 A **** 0
353 HOH 1057 GROUP 4 A **** 0
354 HOH 1060 GROUP 4 A **** 0
355 HOH 1063 GROUP 4 A **** 0
356 HOH 1066 GROUP 4 A **** 0
357 HOH 1069 GROUP 4 A **** 0
358 HOH 1072 GROUP 4 A **** 0
359 HOH 1075 GROUP 4 A **** 0
360 HOH 1078 GROUP 4 A **** 0
361 HOH 1081 GROUP 4 A **** 0
362 HOH 1084 GROUP 4 A **** 0
363 HOH 1087 GROUP 4 A **** 0
364 HOH 1090 GROUP 4 A **** 0
365 HOH 1093 GROUP 4 A **** 0

# MOE 2012.10 (io_trps.svl 2012.10)
