@<TRIPOS>MOLECULE
4xey.A
60 63 1 0 0 
SMALL
USER_CHARGES


@<TRIPOS>ATOM
  1 C1       0.1476    20.7608    42.6174 C.2   1 Q1N1   0.0772 
  2 H1       0.0306    21.7882    42.3059 H     1 Q1N1   0.1500 
  3 C2       1.0528    19.8715    42.0254 C.2   1 Q1N1  -0.0450 
  4 C3       2.0140    20.0279    40.8971 C.2   1 Q1N1   0.7150 
  5 N6      -3.8512    12.9669    49.0498 N.4   1 Q1N1  -0.9590 
  6 H6      -4.1116    12.6928    48.1133 H     1 Q1N1   0.4500 
  7 C7       4.8989    21.5899    37.0469 C.ar  1 Q1N1  -0.1500 
  8 H7       5.5714    21.6749    36.2061 H     1 Q1N1   0.1500 
  9 C8       3.5338    21.3888    36.8631 C.ar  1 Q1N1  -0.1500 
 10 H8       3.1448    21.3171    35.8582 H     1 Q1N1   0.1500 
 11 C9       2.6472    21.2765    37.9476 C.ar  1 Q1N1  -0.1435 
 12 C10      1.1894    21.0664    37.6150 C.3   1 Q1N1  -0.0965 
 13 H101     1.0655    21.0287    36.5327 H     1 Q1N1   0.0800 
 14 H102     0.6020    21.8906    38.0195 H     1 Q1N1   0.0800 
 15 H103     0.8485    20.1281    38.0526 H     1 Q1N1   0.0800 
 16 C11     -0.8935    16.8939    45.1585 C.ar  1 Q1N1   0.4100 
 17 C12     -1.6380    16.3455    46.1821 C.ar  1 Q1N1  -0.1500 
 18 H12     -2.2847    16.9537    46.7972 H     1 Q1N1   0.1500 
 19 C13     -1.5187    14.9673    46.3886 C.ar  1 Q1N1   0.4100 
 20 C14     -0.0103    14.7309    44.6593 C.ar  1 Q1N1   0.4765 
 21 C15      0.8934    13.8572    43.8184 C.3   1 Q1N1  -0.0965 
 22 H151     0.8243    12.8254    44.1629 H     1 Q1N1   0.0800 
 23 H152     1.9228    14.2033    43.9117 H     1 Q1N1   0.0800 
 24 H153     0.5844    13.9133    42.7746 H     1 Q1N1   0.0800 
 25 C16     -2.6893    15.0358    48.5046 C.3   1 Q1N1   0.2091 
 26 H161    -2.8049    16.0928    48.2649 H     1 Q1N1   0.0800 
 27 H162    -2.0212    14.9281    49.3591 H     1 Q1N1   0.0800 
 28 C19     -2.3558    12.8472    47.1367 C.3   1 Q1N1   0.2091 
 29 H191    -1.3959    12.4249    46.8395 H     1 Q1N1   0.0800 
 30 H192    -3.0835    12.6913    46.3403 H     1 Q1N1   0.0800 
 31 C20     -4.6392    12.4175    50.1479 C.3   1 Q1N1   0.3430 
 32 H201    -4.8301    11.3560    49.9899 H     1 Q1N1   0.0800 
 33 H202    -5.5872    12.9470    50.2425 H     1 Q1N1   0.0800 
 34 C21     -3.7812    12.6290    51.3867 C.3   1 Q1N1   0.1200 
 35 H211    -2.7357    12.7501    51.1031 H     1 Q1N1   0.0800 
 36 H212    -3.8786    11.7780    52.0607 H     1 Q1N1   0.0800 
 37 N       -0.9655    18.2419    44.8790 N.pl3 1 Q1N1  -0.5840 
 38 H       -1.5705    18.7984    45.4659 H     1 Q1N1   0.4000 
 39 C       -0.2961    18.8978    43.8831 C.2   1 Q1N1   0.4621 
 40 N1      -0.5740    20.1912    43.6329 N.2   1 Q1N1  -0.5653 
 41 S        0.9608    18.2833    42.7912 S.3   1 Q1N1  -0.0800 
 42 N2       2.2374    21.2335    40.3372 N.am  1 Q1N1  -0.5470 
 43 H2       1.7759    22.0508    40.7102 H     1 Q1N1   0.3700 
 44 C4       3.0888    21.3629    39.2610 C.ar  1 Q1N1   0.1170 
 45 C5       4.4680    21.5593    39.4319 C.ar  1 Q1N1   0.1770 
 46 C6       5.3645    21.6774    38.3579 C.ar  1 Q1N1  -0.1500 
 47 H6       6.4158    21.8361    38.5476 H     1 Q1N1   0.1500 
 48 CL       5.1567    21.6871    41.0765 Cl    1 Q1N1  -0.1770 
 49 O        2.5817    19.0132    40.5348 O.2   1 Q1N1  -0.5700 
 50 N3      -0.7244    14.1760    45.6488 N.ar  1 Q1N1  -0.6200 
 51 N4      -0.1130    16.0644    44.4401 N.ar  1 Q1N1  -0.6200 
 52 N5      -2.1946    14.2997    47.3667 N.pl3 1 Q1N1  -0.8382 
 53 C17     -4.0270    14.3958    48.7815 C.3   1 Q1N1   0.3430 
 54 H171    -4.4830    14.8728    49.6490 H     1 Q1N1   0.0800 
 55 H172    -4.6749    14.5234    47.9143 H     1 Q1N1   0.0800 
 56 C18     -2.8393    12.1449    48.3963 C.3   1 Q1N1   0.3430 
 57 H181    -3.2701    11.1792    48.1319 H     1 Q1N1   0.0800 
 58 H182    -1.9991    11.9945    49.0743 H     1 Q1N1   0.0800 
 59 O1      -4.2642    13.8271    52.0264 O.3   1 Q1N1  -0.6800 
 60 H1      -4.1618    14.5503    51.4034 H     1 Q1N1   0.4000 
@<TRIPOS>BOND
  1   1   2  1   
  2   1   3  2   
  3   1  40  1   
  4   3   4  1   
  5   3  41  1   
  6   4  42  am  
  7   4  49  2   
  8   5   6  1   
  9   5  31  1   
 10   5  53  1   
 11   5  56  1   
 12   7   8  1   
 13   7   9  ar  
 14   7  46  ar  
 15   9  10  1   
 16   9  11  ar  
 17  11  12  1   
 18  11  44  ar  
 19  12  13  1   
 20  12  14  1   
 21  12  15  1   
 22  16  17  ar  
 23  16  37  1   
 24  16  51  ar  
 25  17  18  1   
 26  17  19  ar  
 27  19  50  ar  
 28  19  52  1   
 29  20  21  1   
 30  20  50  ar  
 31  20  51  ar  
 32  21  22  1   
 33  21  23  1   
 34  21  24  1   
 35  25  26  1   
 36  25  27  1   
 37  25  52  1   
 38  25  53  1   
 39  28  29  1   
 40  28  30  1   
 41  28  52  1   
 42  28  56  1   
 43  31  32  1   
 44  31  33  1   
 45  31  34  1   
 46  34  35  1   
 47  34  36  1   
 48  34  59  1   
 49  37  38  1   
 50  37  39  1   
 51  39  40  2   
 52  39  41  1   
 53  42  43  1   
 54  42  44  1   
 55  44  45  ar  
 56  45  46  ar  
 57  45  48  1   
 58  46  47  1   
 59  53  54  1   
 60  53  55  1   
 61  56  57  1   
 62  56  58  1   
 63  59  60  1   
@<TRIPOS>SUBSTRUCTURE
  1 Q1N1  39 GROUP 4 A **** 0

# MOE 2012.10 (io_trps.svl 2012.10)
