@<TRIPOS>MOLECULE
3cs9.B
237 158 79 0 0 
SMALL
USER_CHARGES


@<TRIPOS>ATOM
  1 O      -14.0050     5.7060    13.2967 O.3    1 HOH   0.0000 
  2 H1     -13.0450     5.7060    13.2967 H      1 HOH   0.0000 
  3 H2     -14.2953     6.3530    13.9437 H      1 HOH   0.0000 
  4 O       -6.4243     6.6057    20.8707 O.3    2 HOH   0.0000 
  5 H1      -5.4643     6.6057    20.8707 H      2 HOH   0.0000 
  6 H2      -6.7145     7.2527    21.5178 H      2 HOH   0.0000 
  7 O       -4.6432    16.4896    24.8647 O.3    3 HOH   0.0000 
  8 H1      -3.6832    16.4896    24.8647 H      3 HOH   0.0000 
  9 H2      -4.9334    17.1367    25.5117 H      3 HOH   0.0000 
 10 O       -8.4689     7.0771    22.3860 O.3    4 HOH   0.0000 
 11 H1      -7.5089     7.0771    22.3860 H      4 HOH   0.0000 
 12 H2      -8.7591     7.7241    23.0330 H      4 HOH   0.0000 
 13 O      -13.2285     5.1014    22.4871 O.3    5 HOH   0.0000 
 14 H1     -12.2685     5.1014    22.4871 H      5 HOH   0.0000 
 15 H2     -13.5188     5.7484    23.1342 H      5 HOH   0.0000 
 16 O      -11.7953    -3.2211    26.9033 O.3    6 HOH   0.0000 
 17 H1     -10.8353    -3.2211    26.9033 H      6 HOH   0.0000 
 18 H2     -12.0856    -2.5741    27.5504 H      6 HOH   0.0000 
 19 O       -4.6769     9.8871    33.3521 O.3    7 HOH   0.0000 
 20 H1      -3.7169     9.8871    33.3521 H      7 HOH   0.0000 
 21 H2      -4.9672    10.5341    33.9992 H      7 HOH   0.0000 
 22 O      -17.7561     8.0419    18.8273 O.3    8 HOH   0.0000 
 23 H1     -16.7961     8.0419    18.8273 H      8 HOH   0.0000 
 24 H2     -18.0464     8.6890    19.4743 H      8 HOH   0.0000 
 25 O        4.8991    20.4296    37.5395 O.3    9 HOH  -0.8340 
 26 H1       4.3251    20.5234    38.2998 H      9 HOH   0.4170 
 27 H2       4.7830    21.2436    37.0494 H      9 HOH   0.4170 
 28 O       -3.8197    17.3417    21.4522 O.3   10 HOH   0.0000 
 29 H1      -2.8597    17.3417    21.4522 H     10 HOH   0.0000 
 30 H2      -4.1099    17.9888    22.0993 H     10 HOH   0.0000 
 31 O      -13.5588    28.5853    23.2297 O.3   11 HOH   0.0000 
 32 H1     -12.5988    28.5853    23.2297 H     11 HOH   0.0000 
 33 H2     -13.8491    29.2324    23.8767 H     11 HOH   0.0000 
 34 O       -3.7146    -0.8623    15.0455 O.3   12 HOH   0.0000 
 35 H1      -2.7546    -0.8623    15.0455 H     12 HOH   0.0000 
 36 H2      -4.0049    -0.2152    15.6925 H     12 HOH   0.0000 
 37 O       17.9786    27.4075    23.6942 O.3   13 HOH   0.0000 
 38 H1      18.9386    27.4075    23.6942 H     13 HOH   0.0000 
 39 H2      17.6883    28.0545    24.3413 H     13 HOH   0.0000 
 40 O      -17.3558    26.3591    40.9018 O.3   14 HOH   0.0000 
 41 H1     -16.3958    26.3591    40.9018 H     14 HOH   0.0000 
 42 H2     -17.6460    27.0062    41.5488 H     14 HOH   0.0000 
 43 O       -2.5363     1.3527    17.9689 O.3   15 HOH   0.0000 
 44 H1      -1.5763     1.3527    17.9689 H     15 HOH   0.0000 
 45 H2      -2.8265     1.9997    18.6159 H     15 HOH   0.0000 
 46 O       -6.8771     6.0583    33.6915 O.3   16 HOH   0.0000 
 47 H1      -5.9171     6.0583    33.6915 H     16 HOH   0.0000 
 48 H2      -7.1674     6.7053    34.3385 H     16 HOH   0.0000 
 49 O       -6.0933    35.5993    29.8293 O.3   17 HOH   0.0000 
 50 H1      -5.1333    35.5993    29.8293 H     17 HOH   0.0000 
 51 H2      -6.3835    36.2464    30.4763 H     17 HOH   0.0000 
 52 O       -3.5189    12.9920    26.5694 O.3   18 HOH   0.0000 
 53 H1      -2.5589    12.9920    26.5694 H     18 HOH   0.0000 
 54 H2      -3.8092    13.6391    27.2164 H     18 HOH   0.0000 
 55 O      -22.2881     1.4688    25.2666 O.3   19 HOH   0.0000 
 56 H1     -21.3281     1.4688    25.2666 H     19 HOH   0.0000 
 57 H2     -22.5784     2.1158    25.9136 H     19 HOH   0.0000 
 58 O      -22.8267    26.2729    36.5949 O.3   20 HOH   0.0000 
 59 H1     -21.8667    26.2729    36.5949 H     20 HOH   0.0000 
 60 H2     -23.1170    26.9199    37.2419 H     20 HOH   0.0000 
 61 O       -4.0964    -3.3640    14.0002 O.3   21 HOH   0.0000 
 62 H1      -3.1364    -3.3640    14.0002 H     21 HOH   0.0000 
 63 H2      -4.3866    -2.7169    14.6472 H     21 HOH   0.0000 
 64 O       -5.7802    13.3719    21.5323 O.3   22 HOH   0.0000 
 65 H1      -4.8202    13.3719    21.5323 H     22 HOH   0.0000 
 66 H2      -6.0705    14.0190    22.1793 H     22 HOH   0.0000 
 67 O       -8.9790    11.3585    12.4057 O.3   23 HOH   0.0000 
 68 H1      -8.0190    11.3585    12.4057 H     23 HOH   0.0000 
 69 H2      -9.2693    12.0055    13.0527 H     23 HOH   0.0000 
 70 O      -16.6052    12.0341    12.1853 O.3   24 HOH   0.0000 
 71 H1     -15.6452    12.0341    12.1853 H     24 HOH   0.0000 
 72 H2     -16.8955    12.6811    12.8324 H     24 HOH   0.0000 
 73 O      -12.4277    17.8976    47.4983 O.3   25 HOH   0.0000 
 74 H1     -11.4677    17.8976    47.4983 H     25 HOH   0.0000 
 75 H2     -12.7179    18.5446    48.1454 H     25 HOH   0.0000 
 76 O       -6.9505    -6.9121    11.6371 O.3   26 HOH   0.0000 
 77 H1      -5.9905    -6.9121    11.6371 H     26 HOH   0.0000 
 78 H2      -7.2408    -6.2651    12.2842 H     26 HOH   0.0000 
 79 O      -15.4297    23.8413    44.3551 O.3   27 HOH   0.0000 
 80 H1     -14.4697    23.8413    44.3551 H     27 HOH   0.0000 
 81 H2     -15.7200    24.4883    45.0021 H     27 HOH   0.0000 
 82 O      -13.1101     5.2091    44.2696 O.3   28 HOH   0.0000 
 83 H1     -12.1501     5.2091    44.2696 H     28 HOH   0.0000 
 84 H2     -13.4004     5.8561    44.9167 H     28 HOH   0.0000 
 85 O        1.4139     5.3113    25.0749 O.3   29 HOH   0.0000 
 86 H1       2.3739     5.3113    25.0749 H     29 HOH   0.0000 
 87 H2       1.1236     5.9583    25.7219 H     29 HOH   0.0000 
 88 O      -12.8908    23.3981    18.6302 O.3   30 HOH   0.0000 
 89 H1     -11.9308    23.3981    18.6302 H     30 HOH   0.0000 
 90 H2     -13.1811    24.0451    19.2773 H     30 HOH   0.0000 
 91 O      -22.7732    12.2801    36.7350 O.3   31 HOH   0.0000 
 92 H1     -21.8132    12.2801    36.7350 H     31 HOH   0.0000 
 93 H2     -23.0635    12.9272    37.3821 H     31 HOH   0.0000 
 94 O      -16.7154     8.8140    13.9160 O.3   32 HOH   0.0000 
 95 H1     -15.7554     8.8140    13.9160 H     32 HOH   0.0000 
 96 H2     -17.0057     9.4610    14.5630 H     32 HOH   0.0000 
 97 O       -0.2074    30.1475    34.9851 O.3   33 HOH   0.0000 
 98 H1       0.7526    30.1475    34.9851 H     33 HOH   0.0000 
 99 H2      -0.4977    30.7946    35.6321 H     33 HOH   0.0000 
100 O       -8.4944    27.0048    19.4107 O.3   34 HOH   0.0000 
101 H1      -7.5344    27.0048    19.4107 H     34 HOH   0.0000 
102 H2      -8.7847    27.6519    20.0578 H     34 HOH   0.0000 
103 O      -14.8641    -0.4224    26.8855 O.3   35 HOH   0.0000 
104 H1     -13.9041    -0.4224    26.8855 H     35 HOH   0.0000 
105 H2     -15.1544     0.2247    27.5325 H     35 HOH   0.0000 
106 O       -2.0501    31.2755    19.8741 O.3   36 HOH   0.0000 
107 H1      -1.0901    31.2755    19.8741 H     36 HOH   0.0000 
108 H2      -2.3404    31.9226    20.5211 H     36 HOH   0.0000 
109 O      -19.3606    27.5357    26.9181 O.3   37 HOH   0.0000 
110 H1     -18.4006    27.5357    26.9181 H     37 HOH   0.0000 
111 H2     -19.6508    28.1827    27.5652 H     37 HOH   0.0000 
112 O      -20.8539     8.6049    40.0373 O.3   38 HOH   0.0000 
113 H1     -19.8939     8.6049    40.0373 H     38 HOH   0.0000 
114 H2     -21.1442     9.2519    40.6843 H     38 HOH   0.0000 
115 O      -28.7385    25.8343    30.3790 O.3   39 HOH   0.0000 
116 H1     -27.7785    25.8343    30.3790 H     39 HOH   0.0000 
117 H2     -29.0288    26.4813    31.0260 H     39 HOH   0.0000 
118 O        8.5657    34.6724    51.8314 O.3   40 HOH   0.0000 
119 H1       9.5257    34.6724    51.8314 H     40 HOH   0.0000 
120 H2       8.2754    35.3194    52.4784 H     40 HOH   0.0000 
121 O        4.1377    38.3304    26.6896 O.3   41 HOH   0.0000 
122 H1       5.0977    38.3304    26.6896 H     41 HOH   0.0000 
123 H2       3.8474    38.9774    27.3367 H     41 HOH   0.0000 
124 O      -25.1088    30.0445    33.7810 O.3   42 HOH   0.0000 
125 H1     -24.1488    30.0445    33.7810 H     42 HOH   0.0000 
126 H2     -25.3991    30.6916    34.4280 H     42 HOH   0.0000 
127 O      -18.8515    13.8071    34.1587 O.3   43 HOH   0.0000 
128 H1     -17.8915    13.8071    34.1587 H     43 HOH   0.0000 
129 H2     -19.1418    14.4541    34.8058 H     43 HOH   0.0000 
130 O       -2.6632     7.6540    33.3803 O.3   44 HOH   0.0000 
131 H1      -1.7032     7.6540    33.3803 H     44 HOH   0.0000 
132 H2      -2.9535     8.3011    34.0273 H     44 HOH   0.0000 
133 O       10.5559    38.3700    46.1194 O.3   45 HOH   0.0000 
134 H1      11.5159    38.3700    46.1194 H     45 HOH   0.0000 
135 H2      10.2656    39.0171    46.7665 H     45 HOH   0.0000 
136 O      -25.5642    27.9761    30.6718 O.3   46 HOH   0.0000 
137 H1     -24.6042    27.9761    30.6718 H     46 HOH   0.0000 
138 H2     -25.8545    28.6232    31.3188 H     46 HOH   0.0000 
139 O       -6.4742     9.6578    11.1102 O.3   47 HOH   0.0000 
140 H1      -5.5142     9.6578    11.1102 H     47 HOH   0.0000 
141 H2      -6.7645    10.3049    11.7572 H     47 HOH   0.0000 
142 O       -6.0730    17.2419    15.0821 O.3   48 HOH   0.0000 
143 H1      -5.1130    17.2419    15.0821 H     48 HOH   0.0000 
144 H2      -6.3633    17.8889    15.7291 H     48 HOH   0.0000 
145 O      -18.4921    20.7584    15.5859 O.3   49 HOH   0.0000 
146 H1     -17.5321    20.7584    15.5859 H     49 HOH   0.0000 
147 H2     -18.7824    21.4055    16.2330 H     49 HOH   0.0000 
148 O      -12.8868    -0.9594    25.5825 O.3   50 HOH   0.0000 
149 H1     -11.9268    -0.9594    25.5825 H     50 HOH   0.0000 
150 H2     -13.1771    -0.3123    26.2295 H     50 HOH   0.0000 
151 O      -25.1141    13.0949    36.4758 O.3   51 HOH   0.0000 
152 H1     -24.1541    13.0949    36.4758 H     51 HOH   0.0000 
153 H2     -25.4043    13.7419    37.1228 H     51 HOH   0.0000 
154 O       -4.3364     5.7319    33.4148 O.3   52 HOH   0.0000 
155 H1      -3.3764     5.7319    33.4148 H     52 HOH   0.0000 
156 H2      -4.6267     6.3790    34.0619 H     52 HOH   0.0000 
157 O      -21.0149    12.5548    34.6192 O.3   53 HOH   0.0000 
158 H1     -20.0549    12.5548    34.6192 H     53 HOH   0.0000 
159 H2     -21.3052    13.2018    35.2663 H     53 HOH   0.0000 
160 O       -8.3784    -3.4925     7.0971 O.3   54 HOH   0.0000 
161 H1      -7.4184    -3.4925     7.0971 H     54 HOH   0.0000 
162 H2      -8.6687    -2.8455     7.7442 H     54 HOH   0.0000 
163 O       -0.3604    -4.2004    21.8931 O.3   55 HOH   0.0000 
164 H1       0.5996    -4.2004    21.8931 H     55 HOH   0.0000 
165 H2      -0.6507    -3.5533    22.5401 H     55 HOH   0.0000 
166 O      -15.9739    28.5399    34.6608 O.3   56 HOH   0.0000 
167 H1     -15.0139    28.5399    34.6608 H     56 HOH   0.0000 
168 H2     -16.2642    29.1869    35.3079 H     56 HOH   0.0000 
169 O      -11.0988    -6.1094    29.6843 O.3   57 HOH   0.0000 
170 H1     -10.1388    -6.1094    29.6843 H     57 HOH   0.0000 
171 H2     -11.3891    -5.4624    30.3313 H     57 HOH   0.0000 
172 O      -28.7128    11.3305    30.4161 O.3   58 HOH   0.0000 
173 H1     -27.7528    11.3305    30.4161 H     58 HOH   0.0000 
174 H2     -29.0031    11.9775    31.0632 H     58 HOH   0.0000 
175 O      -25.8056    13.2550    42.6453 O.3   59 HOH   0.0000 
176 H1     -24.8456    13.2550    42.6453 H     59 HOH   0.0000 
177 H2     -26.0959    13.9021    43.2923 H     59 HOH   0.0000 
178 O      -17.0086    10.5571    52.2283 O.3   60 HOH   0.0000 
179 H1     -16.0486    10.5571    52.2283 H     60 HOH   0.0000 
180 H2     -17.2988    11.2041    52.8753 H     60 HOH   0.0000 
181 O       -4.4802    12.5717    44.5043 O.3   61 HOH   0.0000 
182 H1      -3.5202    12.5717    44.5043 H     61 HOH   0.0000 
183 H2      -4.7705    13.2187    45.1514 H     61 HOH   0.0000 
184 O       -9.1161    -0.7625    34.0153 O.3   62 HOH   0.0000 
185 H1      -8.1561    -0.7625    34.0153 H     62 HOH   0.0000 
186 H2      -9.4064    -0.1155    34.6623 H     62 HOH   0.0000 
187 O      -18.0305    26.7835    19.3143 O.3   63 HOH   0.0000 
188 H1     -17.0705    26.7835    19.3143 H     63 HOH   0.0000 
189 H2     -18.3207    27.4305    19.9614 H     63 HOH   0.0000 
190 O       -5.0546    -7.2020    14.2317 O.3   64 HOH   0.0000 
191 H1      -4.0946    -7.2020    14.2317 H     64 HOH   0.0000 
192 H2      -5.3449    -6.5550    14.8787 H     64 HOH   0.0000 
193 O      -18.6664     5.7587    11.1203 O.3   65 HOH   0.0000 
194 H1     -17.7064     5.7587    11.1203 H     65 HOH   0.0000 
195 H2     -18.9567     6.4057    11.7673 H     65 HOH   0.0000 
196 O       21.0168    24.9970    40.3286 O.3   66 HOH   0.0000 
197 H1      21.9768    24.9970    40.3286 H     66 HOH   0.0000 
198 H2      20.7265    25.6440    40.9756 H     66 HOH   0.0000 
199 O      -16.1375    -3.2295    26.7955 O.3   67 HOH   0.0000 
200 H1     -15.1775    -3.2295    26.7955 H     67 HOH   0.0000 
201 H2     -16.4278    -2.5824    27.4425 H     67 HOH   0.0000 
202 O      -17.8182     7.1844    16.3451 O.3   68 HOH   0.0000 
203 H1     -16.8582     7.1844    16.3451 H     68 HOH   0.0000 
204 H2     -18.1084     7.8315    16.9921 H     68 HOH   0.0000 
205 O      -22.8911     9.4678    37.2571 O.3   69 HOH   0.0000 
206 H1     -21.9311     9.4678    37.2571 H     69 HOH   0.0000 
207 H2     -23.1814    10.1148    37.9042 H     69 HOH   0.0000 
208 O       19.9932    22.6606    39.2527 O.3   70 HOH   0.0000 
209 H1      20.9532    22.6606    39.2527 H     70 HOH   0.0000 
210 H2      19.7029    23.3077    39.8997 H     70 HOH   0.0000 
211 O      -17.6552    11.7206    33.2343 O.3   71 HOH   0.0000 
212 H1     -16.6952    11.7206    33.2343 H     71 HOH   0.0000 
213 H2     -17.9455    12.3677    33.8814 H     71 HOH   0.0000 
214 O       -1.2947    -5.9000    24.8856 O.3   72 HOH   0.0000 
215 H1      -0.3347    -5.9000    24.8856 H     72 HOH   0.0000 
216 H2      -1.5849    -5.2530    25.5326 H     72 HOH   0.0000 
217 O      -13.7869    29.3918    30.1957 O.3   73 HOH   0.0000 
218 H1     -12.8269    29.3918    30.1957 H     73 HOH   0.0000 
219 H2     -14.0772    30.0388    30.8427 H     73 HOH   0.0000 
220 O      -30.5177    21.5710    39.7979 O.3   74 HOH   0.0000 
221 H1     -29.5577    21.5710    39.7979 H     74 HOH   0.0000 
222 H2     -30.8080    22.2180    40.4449 H     74 HOH   0.0000 
223 O       20.0362    20.0038    29.3617 O.3   75 HOH   0.0000 
224 H1      20.9962    20.0038    29.3617 H     75 HOH   0.0000 
225 H2      19.7459    20.6509    30.0088 H     75 HOH   0.0000 
226 O      -19.1515     1.3506    21.3660 O.3   76 HOH   0.0000 
227 H1     -18.1915     1.3506    21.3660 H     76 HOH   0.0000 
228 H2     -19.4417     1.9976    22.0131 H     76 HOH   0.0000 
229 O       13.1809    39.4188    42.7979 O.3   77 HOH   0.0000 
230 H1      14.1409    39.4188    42.7979 H     77 HOH   0.0000 
231 H2      12.8906    40.0659    43.4450 H     77 HOH   0.0000 
232 O      -20.1218     5.9724    35.7680 O.3   78 HOH   0.0000 
233 H1     -19.1618     5.9724    35.7680 H     78 HOH   0.0000 
234 H2     -20.4121     6.6194    36.4151 H     78 HOH   0.0000 
235 O        4.8775    37.0884    24.9011 O.3   79 HOH   0.0000 
236 H1       5.8375    37.0884    24.9011 H     79 HOH   0.0000 
237 H2       4.5872    37.7355    25.5482 H     79 HOH   0.0000 
@<TRIPOS>BOND
  1   1   2  1   
  2   1   3  1   
  3   4   5  1   
  4   4   6  1   
  5   7   8  1   
  6   7   9  1   
  7  10  11  1   
  8  10  12  1   
  9  13  14  1   
 10  13  15  1   
 11  16  17  1   
 12  16  18  1   
 13  19  20  1   
 14  19  21  1   
 15  22  23  1   
 16  22  24  1   
 17  25  26  1   
 18  25  27  1   
 19  28  29  1   
 20  28  30  1   
 21  31  32  1   
 22  31  33  1   
 23  34  35  1   
 24  34  36  1   
 25  37  38  1   
 26  37  39  1   
 27  40  41  1   
 28  40  42  1   
 29  43  44  1   
 30  43  45  1   
 31  46  47  1   
 32  46  48  1   
 33  49  50  1   
 34  49  51  1   
 35  52  53  1   
 36  52  54  1   
 37  55  56  1   
 38  55  57  1   
 39  58  59  1   
 40  58  60  1   
 41  61  62  1   
 42  61  63  1   
 43  64  65  1   
 44  64  66  1   
 45  67  68  1   
 46  67  69  1   
 47  70  71  1   
 48  70  72  1   
 49  73  74  1   
 50  73  75  1   
 51  76  77  1   
 52  76  78  1   
 53  79  80  1   
 54  79  81  1   
 55  82  83  1   
 56  82  84  1   
 57  85  86  1   
 58  85  87  1   
 59  88  89  1   
 60  88  90  1   
 61  91  92  1   
 62  91  93  1   
 63  94  95  1   
 64  94  96  1   
 65  97  98  1   
 66  97  99  1   
 67 100 101  1   
 68 100 102  1   
 69 103 104  1   
 70 103 105  1   
 71 106 107  1   
 72 106 108  1   
 73 109 110  1   
 74 109 111  1   
 75 112 113  1   
 76 112 114  1   
 77 115 116  1   
 78 115 117  1   
 79 118 119  1   
 80 118 120  1   
 81 121 122  1   
 82 121 123  1   
 83 124 125  1   
 84 124 126  1   
 85 127 128  1   
 86 127 129  1   
 87 130 131  1   
 88 130 132  1   
 89 133 134  1   
 90 133 135  1   
 91 136 137  1   
 92 136 138  1   
 93 139 140  1   
 94 139 141  1   
 95 142 143  1   
 96 142 144  1   
 97 145 146  1   
 98 145 147  1   
 99 148 149  1   
100 148 150  1   
101 151 152  1   
102 151 153  1   
103 154 155  1   
104 154 156  1   
105 157 158  1   
106 157 159  1   
107 160 161  1   
108 160 162  1   
109 163 164  1   
110 163 165  1   
111 166 167  1   
112 166 168  1   
113 169 170  1   
114 169 171  1   
115 172 173  1   
116 172 174  1   
117 175 176  1   
118 175 177  1   
119 178 179  1   
120 178 180  1   
121 181 182  1   
122 181 183  1   
123 184 185  1   
124 184 186  1   
125 187 188  1   
126 187 189  1   
127 190 191  1   
128 190 192  1   
129 193 194  1   
130 193 195  1   
131 196 197  1   
132 196 198  1   
133 199 200  1   
134 199 201  1   
135 202 203  1   
136 202 204  1   
137 205 206  1   
138 205 207  1   
139 208 209  1   
140 208 210  1   
141 211 212  1   
142 211 213  1   
143 214 215  1   
144 214 216  1   
145 217 218  1   
146 217 219  1   
147 220 221  1   
148 220 222  1   
149 223 224  1   
150 223 225  1   
151 226 227  1   
152 226 228  1   
153 229 230  1   
154 229 231  1   
155 232 233  1   
156 232 234  1   
157 235 236  1   
158 235 237  1   
@<TRIPOS>SUBSTRUCTURE
  1 HOH   1 GROUP 4 B **** 0
  2 HOH   4 GROUP 4 B **** 0
  3 HOH   7 GROUP 4 B **** 0
  4 HOH  10 GROUP 4 B **** 0
  5 HOH  13 GROUP 4 B **** 0
  6 HOH  16 GROUP 4 B **** 0
  7 HOH  19 GROUP 4 B **** 0
  8 HOH  22 GROUP 4 B **** 0
  9 HOH  25 GROUP 4 B **** 0
 10 HOH  28 GROUP 4 B **** 0
 11 HOH  31 GROUP 4 B **** 0
 12 HOH  34 GROUP 4 B **** 0
 13 HOH  37 GROUP 4 B **** 0
 14 HOH  40 GROUP 4 B **** 0
 15 HOH  43 GROUP 4 B **** 0
 16 HOH  46 GROUP 4 B **** 0
 17 HOH  49 GROUP 4 B **** 0
 18 HOH  52 GROUP 4 B **** 0
 19 HOH  55 GROUP 4 B **** 0
 20 HOH  58 GROUP 4 B **** 0
 21 HOH  61 GROUP 4 B **** 0
 22 HOH  64 GROUP 4 B **** 0
 23 HOH  67 GROUP 4 B **** 0
 24 HOH  70 GROUP 4 B **** 0
 25 HOH  73 GROUP 4 B **** 0
 26 HOH  76 GROUP 4 B **** 0
 27 HOH  79 GROUP 4 B **** 0
 28 HOH  82 GROUP 4 B **** 0
 29 HOH  85 GROUP 4 B **** 0
 30 HOH  88 GROUP 4 B **** 0
 31 HOH  91 GROUP 4 B **** 0
 32 HOH  94 GROUP 4 B **** 0
 33 HOH  97 GROUP 4 B **** 0
 34 HOH 100 GROUP 4 B **** 0
 35 HOH 103 GROUP 4 B **** 0
 36 HOH 106 GROUP 4 B **** 0
 37 HOH 109 GROUP 4 B **** 0
 38 HOH 112 GROUP 4 B **** 0
 39 HOH 115 GROUP 4 B **** 0
 40 HOH 118 GROUP 4 B **** 0
 41 HOH 121 GROUP 4 B **** 0
 42 HOH 124 GROUP 4 B **** 0
 43 HOH 127 GROUP 4 B **** 0
 44 HOH 130 GROUP 4 B **** 0
 45 HOH 133 GROUP 4 B **** 0
 46 HOH 136 GROUP 4 B **** 0
 47 HOH 139 GROUP 4 B **** 0
 48 HOH 142 GROUP 4 B **** 0
 49 HOH 145 GROUP 4 B **** 0
 50 HOH 148 GROUP 4 B **** 0
 51 HOH 151 GROUP 4 B **** 0
 52 HOH 154 GROUP 4 B **** 0
 53 HOH 157 GROUP 4 B **** 0
 54 HOH 160 GROUP 4 B **** 0
 55 HOH 163 GROUP 4 B **** 0
 56 HOH 166 GROUP 4 B **** 0
 57 HOH 169 GROUP 4 B **** 0
 58 HOH 172 GROUP 4 B **** 0
 59 HOH 175 GROUP 4 B **** 0
 60 HOH 178 GROUP 4 B **** 0
 61 HOH 181 GROUP 4 B **** 0
 62 HOH 184 GROUP 4 B **** 0
 63 HOH 187 GROUP 4 B **** 0
 64 HOH 190 GROUP 4 B **** 0
 65 HOH 193 GROUP 4 B **** 0
 66 HOH 196 GROUP 4 B **** 0
 67 HOH 199 GROUP 4 B **** 0
 68 HOH 202 GROUP 4 B **** 0
 69 HOH 205 GROUP 4 B **** 0
 70 HOH 208 GROUP 4 B **** 0
 71 HOH 211 GROUP 4 B **** 0
 72 HOH 214 GROUP 4 B **** 0
 73 HOH 217 GROUP 4 B **** 0
 74 HOH 220 GROUP 4 B **** 0
 75 HOH 223 GROUP 4 B **** 0
 76 HOH 226 GROUP 4 B **** 0
 77 HOH 229 GROUP 4 B **** 0
 78 HOH 232 GROUP 4 B **** 0
 79 HOH 235 GROUP 4 B **** 0

# MOE 2012.10 (io_trps.svl 2012.10)
