@<TRIPOS>MOLECULE
3qrj.B
69 73 1 0 0 
SMALL
USER_CHARGES


@<TRIPOS>ATOM
  1 C1       3.2177    23.9165    30.3751 C.ar  1 Q919  -0.0230 
  2 C2       3.7930    24.7677    29.4244 C.ar  1 Q919  -0.1500 
  3 H2       3.2371    25.6363    29.1036 H     1 Q919   0.1500 
  4 C3       5.0481    24.5419    28.8769 C.ar  1 Q919  -0.1500 
  5 H3       5.4457    25.2282    28.1438 H     1 Q919   0.1500 
  6 C4       5.7875    23.4500    29.2623 C.ar  1 Q919   0.3100 
  7 C5       5.2496    22.5609    30.1887 C.ar  1 Q919   0.0000 
  8 C6       3.9854    22.8017    30.7186 C.ar  1 Q919  -0.1500 
  9 H6       3.5799    22.0947    31.4273 H     1 Q919   0.1500 
 10 C9       7.7105    22.1529    29.0971 C.ar  1 Q919   0.1600 
 11 H9       8.6820    21.9842    28.6565 H     1 Q919   0.1500 
 12 N10      7.0010    23.2343    28.7210 N.ar  1 Q919  -0.6200 
 13 C13      5.9642    21.4444    30.5938 C.ar  1 Q919  -0.1500 
 14 H13      5.5542    20.7535    31.3155 H     1 Q919   0.1500 
 15 C14      7.2251    21.2404    30.0432 C.ar  1 Q919  -0.1500 
 16 H14      7.8216    20.3906    30.3408 H     1 Q919   0.1500 
 17 C22      0.1346    22.0668    42.6114 C.ar  1 Q919   0.1600 
 18 H22     -0.5487    22.8841    42.7889 H     1 Q919   0.1500 
 19 N23      0.0432    20.9442    43.3613 N.ar  1 Q919  -0.6200 
 20 C24      0.8776    19.9042    43.1164 C.ar  1 Q919   0.3962 
 21 C25      1.8662    19.9798    42.1397 C.ar  1 Q919  -0.1500 
 22 H25      2.5440    19.1526    41.9887 H     1 Q919   0.1500 
 23 C26      1.9763    21.1171    41.3648 C.ar  1 Q919   0.0825 
 24 C27      1.1014    22.1810    41.6109 C.ar  1 Q919  -0.1500 
 25 H27      1.1740    23.0878    41.0288 H     1 Q919   0.1500 
 26 C34      1.7086    22.3424    37.1378 C.ar  1 Q919  -0.1500 
 27 H34      0.7913    22.4016    36.5708 H     1 Q919   0.1500 
 28 C35      1.6948    21.7760    38.4059 C.ar  1 Q919  -0.1500 
 29 H35      0.7754    21.3842    38.8153 H     1 Q919   0.1500 
 30 C36      2.8860    21.7152    39.1556 C.ar  1 Q919   0.0825 
 31 C37      4.0619    22.2017    38.6041 C.ar  1 Q919  -0.1500 
 32 H37      4.9828    22.1369    39.1646 H     1 Q919   0.1500 
 33 C38      4.0660    22.7711    37.3380 C.ar  1 Q919   0.1900 
 34 C39      2.9037    22.8411    36.5808 C.ar  1 Q919   0.1170 
 35 C46     -0.1203    24.4346    30.6863 C.2   1 Q919   0.1078 
 36 C47      0.1441    24.2760    32.0516 C.2   1 Q919  -0.1500 
 37 H47     -0.5648    24.3211    32.8651 H     1 Q919   0.1500 
 38 C48      1.5178    24.0473    32.1385 C.2   1 Q919  -0.0876 
 39 N49      1.9846    24.1109    30.8580 N.pl3 1 Q919   0.5926 
 40 N50      0.9698    24.3118    29.9099 N.2   1 Q919  -0.7068 
 41 N56      2.3892    23.8577    33.1806 N.am  1 Q919  -0.4940 
 42 H56      3.3531    24.1141    33.0217 H     1 Q919   0.3700 
 43 C58      2.0838    23.3623    34.3959 C.2   1 Q919   0.6900 
 44 N60      3.0268    23.3953    35.3507 N.am  1 Q919  -0.5470 
 45 H60      3.8928    23.8686    35.1359 H     1 Q919   0.3700 
 46 O63      1.0019    22.8876    34.6440 O.2   1 Q919  -0.5700 
 47 O65      2.9604    21.1463    40.4083 O.3   1 Q919  -0.1650 
 48 F68      5.2114    23.2838    36.8451 F     1 Q919  -0.1900 
 49 C70      0.7882    18.6920    43.9684 C.2   1 Q919   0.5438 
 50 O72      1.5840    17.7503    43.8437 O.2   1 Q919  -0.5700 
 51 N74     -0.0949    18.7327    44.9397 N.am  1 Q919  -0.7301 
 52 H74     -0.7880    19.4673    44.9363 H     1 Q919   0.3700 
 53 C76     -0.1116    17.7651    46.0137 C.3   1 Q919   0.0601 
 54 H761     0.6954    17.0470    45.8683 H     1 Q919   0.0800 
 55 H762    -1.0677    17.2417    46.0163 H     1 Q919   0.0800 
 56 H763     0.0248    18.2771    46.9662 H     1 Q919   0.0800 
 57 C79     -1.4807    24.6376    30.0197 C.3   1 Q919   0.1810 
 58 C81     -1.5494    23.6155    28.8887 C.3   1 Q919  -0.2400 
 59 H811    -1.4271    22.6124    29.2974 H     1 Q919   0.0800 
 60 H812    -0.7542    23.8145    28.1703 H     1 Q919   0.0800 
 61 H813    -2.5160    23.6894    28.3904 H     1 Q919   0.0800 
 62 C83     -2.6528    24.3598    30.9501 C.3   1 Q919  -0.2400 
 63 H831    -2.5391    23.3700    31.3923 H     1 Q919   0.0800 
 64 H832    -3.5835    24.4001    30.3842 H     1 Q919   0.0800 
 65 H833    -2.6753    25.1103    31.7403 H     1 Q919   0.0800 
 66 C85     -1.6561    26.0305    29.4077 C.3   1 Q919  -0.2400 
 67 H851    -0.8217    26.2411    28.7387 H     1 Q919   0.0800 
 68 H852    -1.6816    26.7760    30.2025 H     1 Q919   0.0800 
 69 H853    -2.5898    26.0658    28.8464 H     1 Q919   0.0800 
@<TRIPOS>BOND
  1   1   2  ar  
  2   1   8  ar  
  3   1  39  1   
  4   2   3  1   
  5   2   4  ar  
  6   4   5  1   
  7   4   6  ar  
  8   6   7  ar  
  9   6  12  ar  
 10   7   8  ar  
 11   7  13  ar  
 12   8   9  1   
 13  10  11  1   
 14  10  12  ar  
 15  10  15  ar  
 16  13  14  1   
 17  13  15  ar  
 18  15  16  1   
 19  17  18  1   
 20  17  19  ar  
 21  17  24  ar  
 22  19  20  ar  
 23  20  21  ar  
 24  20  49  1   
 25  21  22  1   
 26  21  23  ar  
 27  23  24  ar  
 28  23  47  1   
 29  24  25  1   
 30  26  27  1   
 31  26  28  ar  
 32  26  34  ar  
 33  28  29  1   
 34  28  30  ar  
 35  30  31  ar  
 36  30  47  1   
 37  31  32  1   
 38  31  33  ar  
 39  33  34  ar  
 40  33  48  1   
 41  34  44  1   
 42  35  36  1   
 43  35  40  2   
 44  35  57  1   
 45  36  37  1   
 46  36  38  2   
 47  38  39  1   
 48  38  41  1   
 49  39  40  1   
 50  41  42  1   
 51  41  43  am  
 52  43  44  am  
 53  43  46  2   
 54  44  45  1   
 55  49  50  2   
 56  49  51  am  
 57  51  52  1   
 58  51  53  1   
 59  53  54  1   
 60  53  55  1   
 61  53  56  1   
 62  57  58  1   
 63  57  62  1   
 64  57  66  1   
 65  58  59  1   
 66  58  60  1   
 67  58  61  1   
 68  62  63  1   
 69  62  64  1   
 70  62  65  1   
 71  66  67  1   
 72  66  68  1   
 73  66  69  1   
@<TRIPOS>SUBSTRUCTURE
  1 Q919  44 GROUP 4 B **** 0

# MOE 2012.10 (io_trps.svl 2012.10)
