@<TRIPOS>MOLECULE
3qrj.B
348 232 116 0 0 
SMALL
USER_CHARGES


@<TRIPOS>ATOM
  1 O        7.2727    13.3035    41.3859 O.3     1 HOH   0.0000 
  2 H1       8.2327    13.3035    41.3859 H       1 HOH   0.0000 
  3 H2       6.9824    13.9506    42.0330 H       1 HOH   0.0000 
  4 O       -8.8876     6.9226    22.5691 O.3     2 HOH   0.0000 
  5 H1      -7.9276     6.9226    22.5691 H       2 HOH   0.0000 
  6 H2      -9.1779     7.5697    23.2162 H       2 HOH   0.0000 
  7 O      -13.8791     5.1737    22.7748 O.3     3 HOH   0.0000 
  8 H1     -12.9191     5.1737    22.7748 H       3 HOH   0.0000 
  9 H2     -14.1694     5.8207    23.4219 H       3 HOH   0.0000 
 10 O       -6.8267     6.2865    21.0752 O.3     4 HOH   0.0000 
 11 H1      -5.8667     6.2865    21.0752 H       4 HOH   0.0000 
 12 H2      -7.1170     6.9335    21.7222 H       4 HOH   0.0000 
 13 O       -8.0591     5.3552    49.6217 O.3     5 HOH   0.0000 
 14 H1      -7.0991     5.3552    49.6217 H       5 HOH   0.0000 
 15 H2      -8.3493     6.0022    50.2687 H       5 HOH   0.0000 
 16 O      -16.6195     4.4662    48.8691 O.3     6 HOH   0.0000 
 17 H1     -15.6595     4.4662    48.8691 H       6 HOH   0.0000 
 18 H2     -16.9098     5.1132    49.5162 H       6 HOH   0.0000 
 19 O       -5.2310     9.7586    33.6349 O.3     7 HOH   0.0000 
 20 H1      -4.2710     9.7586    33.6349 H       7 HOH   0.0000 
 21 H2      -5.5212    10.4056    34.2819 H       7 HOH   0.0000 
 22 O        9.5889    23.1193    32.0896 O.3     8 HOH  -0.8340 
 23 H1      10.0266    23.8276    31.6175 H       8 HOH   0.4170 
 24 H2       8.7603    23.5006    32.3799 H       8 HOH   0.4170 
 25 O       -2.0919     4.4814    26.9969 O.3     9 HOH   0.0000 
 26 H1      -1.1319     4.4814    26.9969 H       9 HOH   0.0000 
 27 H2      -2.3822     5.1285    27.6440 H       9 HOH   0.0000 
 28 O        0.9254    18.6209    26.6806 O.3    10 HOH  -0.8340 
 29 H1       0.9478    18.9794    27.5679 H      10 HOH   0.4170 
 30 H2       0.2747    19.1532    26.2230 H      10 HOH   0.4170 
 31 O      -18.2208     8.0692    19.1195 O.3    11 HOH   0.0000 
 32 H1     -17.2608     8.0692    19.1195 H      11 HOH   0.0000 
 33 H2     -18.5111     8.7163    19.7666 H      11 HOH   0.0000 
 34 O       -4.5132    17.0016    21.6110 O.3    12 HOH   0.0000 
 35 H1      -3.5532    17.0016    21.6110 H      12 HOH   0.0000 
 36 H2      -4.8035    17.6487    22.2580 H      12 HOH   0.0000 
 37 O      -13.2519    -1.0230    26.0170 O.3    13 HOH   0.0000 
 38 H1     -12.2919    -1.0230    26.0170 H      13 HOH   0.0000 
 39 H2     -13.5422    -0.3759    26.6641 H      13 HOH   0.0000 
 40 O       -3.5626    12.4700    27.0239 O.3    14 HOH   0.0000 
 41 H1      -2.6026    12.4700    27.0239 H      14 HOH   0.0000 
 42 H2      -3.8529    13.1171    27.6710 H      14 HOH   0.0000 
 43 O       -6.5912    23.7982    16.8677 O.3    15 HOH   0.0000 
 44 H1      -5.6312    23.7982    16.8677 H      15 HOH   0.0000 
 45 H2      -6.8814    24.4453    17.5147 H      15 HOH   0.0000 
 46 O        2.5734    38.7489    33.5386 O.3    16 HOH   0.0000 
 47 H1       3.5334    38.7489    33.5386 H      16 HOH   0.0000 
 48 H2       2.2831    39.3960    34.1856 H      16 HOH   0.0000 
 49 O       -7.0067     9.2532    11.1291 O.3    17 HOH   0.0000 
 50 H1      -6.0467     9.2532    11.1291 H      17 HOH   0.0000 
 51 H2      -7.2970     9.9003    11.7762 H      17 HOH   0.0000 
 52 O       -8.8503    10.1237    46.9905 O.3    18 HOH   0.0000 
 53 H1      -7.8903    10.1237    46.9905 H      18 HOH   0.0000 
 54 H2      -9.1406    10.7708    47.6375 H      18 HOH   0.0000 
 55 O        4.6007     5.7840    30.6037 O.3    19 HOH   0.0000 
 56 H1       5.5607     5.7840    30.6037 H      19 HOH   0.0000 
 57 H2       4.3104     6.4310    31.2508 H      19 HOH   0.0000 
 58 O       -8.4503    29.0220    43.1587 O.3    20 HOH   0.0000 
 59 H1      -7.4903    29.0220    43.1587 H      20 HOH   0.0000 
 60 H2      -8.7406    29.6690    43.8058 H      20 HOH   0.0000 
 61 O       -7.1473     6.1116    33.9097 O.3    21 HOH   0.0000 
 62 H1      -6.1873     6.1116    33.9097 H      21 HOH   0.0000 
 63 H2      -7.4376     6.7586    34.5567 H      21 HOH   0.0000 
 64 O        1.8537    15.8466    30.2945 O.3    22 HOH   0.0000 
 65 H1       2.8137    15.8466    30.2945 H      22 HOH   0.0000 
 66 H2       1.5635    16.4937    30.9415 H      22 HOH   0.0000 
 67 O       -8.9705    33.4959    37.2549 O.3    23 HOH   0.0000 
 68 H1      -8.0105    33.4959    37.2549 H      23 HOH   0.0000 
 69 H2      -9.2607    34.1429    37.9020 H      23 HOH   0.0000 
 70 O        2.0686    36.1302    29.9146 O.3    24 HOH   0.0000 
 71 H1       3.0286    36.1302    29.9146 H      24 HOH   0.0000 
 72 H2       1.7783    36.7773    30.5617 H      24 HOH   0.0000 
 73 O        6.3722    17.1367    25.1135 O.3    25 HOH   0.0000 
 74 H1       7.3322    17.1367    25.1135 H      25 HOH   0.0000 
 75 H2       6.0820    17.7837    25.7606 H      25 HOH   0.0000 
 76 O       -2.3982    25.7166    41.0227 O.3    26 HOH  -0.8340 
 77 H1      -1.9844    25.3250    41.7919 H      26 HOH   0.4170 
 78 H2      -3.0462    26.3229    41.3814 H      26 HOH   0.4170 
 79 O       -4.5911    12.4088    44.4439 O.3    27 HOH   0.0000 
 80 H1      -3.6311    12.4088    44.4439 H      27 HOH   0.0000 
 81 H2      -4.8814    13.0559    45.0909 H      27 HOH   0.0000 
 82 O      -26.1450     2.1422    34.5865 O.3    28 HOH   0.0000 
 83 H1     -25.1850     2.1422    34.5865 H      28 HOH   0.0000 
 84 H2     -26.4352     2.7892    35.2335 H      28 HOH   0.0000 
 85 O       -1.3827    33.8568    35.5826 O.3    29 HOH   0.0000 
 86 H1      -0.4227    33.8568    35.5826 H      29 HOH   0.0000 
 87 H2      -1.6730    34.5038    36.2296 H      29 HOH   0.0000 
 88 O      -11.4943    17.9691    47.4848 O.3    30 HOH   0.0000 
 89 H1     -10.5343    17.9691    47.4848 H      30 HOH   0.0000 
 90 H2     -11.7846    18.6161    48.1318 H      30 HOH   0.0000 
 91 O      -13.1819    11.1881    49.6418 O.3    31 HOH   0.0000 
 92 H1     -12.2219    11.1881    49.6418 H      31 HOH   0.0000 
 93 H2     -13.4722    11.8352    50.2888 H      31 HOH   0.0000 
 94 O      -28.0156    25.5523    33.2439 O.3    32 HOH   0.0000 
 95 H1     -27.0556    25.5523    33.2439 H      32 HOH   0.0000 
 96 H2     -28.3059    26.1993    33.8909 H      32 HOH   0.0000 
 97 O      -13.8948    31.0855    29.0139 O.3    33 HOH   0.0000 
 98 H1     -12.9348    31.0855    29.0139 H      33 HOH   0.0000 
 99 H2     -14.1851    31.7326    29.6610 H      33 HOH   0.0000 
100 O      -11.8258    25.2184    46.7357 O.3    34 HOH   0.0000 
101 H1     -10.8658    25.2184    46.7357 H      34 HOH   0.0000 
102 H2     -12.1160    25.8654    47.3828 H      34 HOH   0.0000 
103 O      -16.4276    19.8280    50.2097 O.3    35 HOH   0.0000 
104 H1     -15.4676    19.8280    50.2097 H      35 HOH   0.0000 
105 H2     -16.7178    20.4750    50.8568 H      35 HOH   0.0000 
106 O      -25.5088    15.2050    26.1120 O.3    36 HOH   0.0000 
107 H1     -24.5488    15.2050    26.1120 H      36 HOH   0.0000 
108 H2     -25.7990    15.8521    26.7590 H      36 HOH   0.0000 
109 O       -3.1522     7.6621    33.4660 O.3    37 HOH   0.0000 
110 H1      -2.1922     7.6621    33.4660 H      37 HOH   0.0000 
111 H2      -3.4425     8.3092    34.1131 H      37 HOH   0.0000 
112 O      -18.5422     0.1986    19.5743 O.3    38 HOH   0.0000 
113 H1     -17.5822     0.1986    19.5743 H      38 HOH   0.0000 
114 H2     -18.8325     0.8456    20.2213 H      38 HOH   0.0000 
115 O        8.1055     9.7891    19.7964 O.3    39 HOH   0.0000 
116 H1       9.0655     9.7891    19.7964 H      39 HOH   0.0000 
117 H2       7.8153    10.4361    20.4434 H      39 HOH   0.0000 
118 O      -17.0530     8.8913    13.8077 O.3    40 HOH   0.0000 
119 H1     -16.0930     8.8913    13.8077 H      40 HOH   0.0000 
120 H2     -17.3433     9.5383    14.4548 H      40 HOH   0.0000 
121 O      -22.3904     0.9997    25.6418 O.3    41 HOH   0.0000 
122 H1     -21.4304     0.9997    25.6418 H      41 HOH   0.0000 
123 H2     -22.6807     1.6467    26.2889 H      41 HOH   0.0000 
124 O       -5.1782    16.1922    24.7849 O.3    42 HOH   0.0000 
125 H1      -4.2182    16.1922    24.7849 H      42 HOH   0.0000 
126 H2      -5.4685    16.8392    25.4319 H      42 HOH   0.0000 
127 O      -16.1876    30.2747    24.2092 O.3    43 HOH   0.0000 
128 H1     -15.2276    30.2747    24.2092 H      43 HOH   0.0000 
129 H2     -16.4779    30.9218    24.8562 H      43 HOH   0.0000 
130 O        1.8541    13.1290    25.8306 O.3    44 HOH   0.0000 
131 H1       2.8141    13.1290    25.8306 H      44 HOH   0.0000 
132 H2       1.5639    13.7761    26.4776 H      44 HOH   0.0000 
133 O      -10.1219    28.6382    41.5592 O.3    45 HOH   0.0000 
134 H1      -9.1619    28.6382    41.5592 H      45 HOH   0.0000 
135 H2     -10.4122    29.2852    42.2063 H      45 HOH   0.0000 
136 O      -16.8054    11.8110    11.8713 O.3    46 HOH   0.0000 
137 H1     -15.8454    11.8110    11.8713 H      46 HOH   0.0000 
138 H2     -17.0957    12.4580    12.5184 H      46 HOH   0.0000 
139 O      -18.8725     3.1368    36.7215 O.3    47 HOH   0.0000 
140 H1     -17.9125     3.1368    36.7215 H      47 HOH   0.0000 
141 H2     -19.1628     3.7838    37.3686 H      47 HOH   0.0000 
142 O        2.7796     0.4105    16.3434 O.3    48 HOH   0.0000 
143 H1       3.7396     0.4105    16.3434 H      48 HOH   0.0000 
144 H2       2.4893     1.0576    16.9904 H      48 HOH   0.0000 
145 O      -14.1334    28.5076    23.7886 O.3    49 HOH   0.0000 
146 H1     -13.1734    28.5076    23.7886 H      49 HOH   0.0000 
147 H2     -14.4236    29.1546    24.4357 H      49 HOH   0.0000 
148 O       -5.2813    30.3638    36.4859 O.3    50 HOH   0.0000 
149 H1      -4.3213    30.3638    36.4859 H      50 HOH   0.0000 
150 H2      -5.5716    31.0108    37.1329 H      50 HOH   0.0000 
151 O       -9.4799    11.0048    12.5153 O.3    51 HOH   0.0000 
152 H1      -8.5199    11.0048    12.5153 H      51 HOH   0.0000 
153 H2      -9.7702    11.6518    13.1624 H      51 HOH   0.0000 
154 O      -14.3757    28.8833    30.1765 O.3    52 HOH   0.0000 
155 H1     -13.4157    28.8833    30.1765 H      52 HOH   0.0000 
156 H2     -14.6660    29.5304    30.8235 H      52 HOH   0.0000 
157 O       -1.1631     9.6436    38.1982 O.3    53 HOH   0.0000 
158 H1      -0.2031     9.6436    38.1982 H      53 HOH   0.0000 
159 H2      -1.4534    10.2907    38.8452 H      53 HOH   0.0000 
160 O      -11.4396     3.0485    40.8270 O.3    54 HOH   0.0000 
161 H1     -10.4796     3.0485    40.8270 H      54 HOH   0.0000 
162 H2     -11.7299     3.6955    41.4740 H      54 HOH   0.0000 
163 O        4.7327     7.8640    12.6981 O.3    55 HOH   0.0000 
164 H1       5.6927     7.8640    12.6981 H      55 HOH   0.0000 
165 H2       4.4424     8.5110    13.3451 H      55 HOH   0.0000 
166 O        3.9242    11.3038    24.4942 O.3    56 HOH   0.0000 
167 H1       4.8842    11.3038    24.4942 H      56 HOH   0.0000 
168 H2       3.6339    11.9508    25.1412 H      56 HOH   0.0000 
169 O       -3.4226     0.6267    16.1854 O.3    57 HOH   0.0000 
170 H1      -2.4626     0.6267    16.1854 H      57 HOH   0.0000 
171 H2      -3.7129     1.2737    16.8324 H      57 HOH   0.0000 
172 O      -26.8609    14.9137    23.9900 O.3    58 HOH   0.0000 
173 H1     -25.9009    14.9137    23.9900 H      58 HOH   0.0000 
174 H2     -27.1512    15.5607    24.6370 H      58 HOH   0.0000 
175 O       -7.9648    24.1489    47.2563 O.3    59 HOH   0.0000 
176 H1      -7.0048    24.1489    47.2563 H      59 HOH   0.0000 
177 H2      -8.2551    24.7959    47.9034 H      59 HOH   0.0000 
178 O       -4.6434    30.8906    42.4611 O.3    60 HOH   0.0000 
179 H1      -3.6834    30.8906    42.4611 H      60 HOH   0.0000 
180 H2      -4.9336    31.5377    43.1081 H      60 HOH   0.0000 
181 O      -15.6179     5.8452    13.5609 O.3    61 HOH   0.0000 
182 H1     -14.6579     5.8452    13.5609 H      61 HOH   0.0000 
183 H2     -15.9082     6.4923    14.2079 H      61 HOH   0.0000 
184 O        4.6831    12.9150    20.5287 O.3    62 HOH   0.0000 
185 H1       5.6431    12.9150    20.5287 H      62 HOH   0.0000 
186 H2       4.3929    13.5621    21.1758 H      62 HOH   0.0000 
187 O        3.7066     5.8739    37.0414 O.3    63 HOH   0.0000 
188 H1       4.6666     5.8739    37.0414 H      63 HOH   0.0000 
189 H2       3.4163     6.5209    37.6884 H      63 HOH   0.0000 
190 O      -18.7885    19.9405    49.4223 O.3    64 HOH   0.0000 
191 H1     -17.8285    19.9405    49.4223 H      64 HOH   0.0000 
192 H2     -19.0788    20.5875    50.0694 H      64 HOH   0.0000 
193 O       -1.0852    30.6815    35.8635 O.3    65 HOH   0.0000 
194 H1      -0.1252    30.6815    35.8635 H      65 HOH   0.0000 
195 H2      -1.3755    31.3286    36.5105 H      65 HOH   0.0000 
196 O       -4.7465     5.3882    33.6556 O.3    66 HOH   0.0000 
197 H1      -3.7865     5.3882    33.6556 H      66 HOH   0.0000 
198 H2      -5.0368     6.0352    34.3026 H      66 HOH   0.0000 
199 O       10.1123    44.7452    36.3892 O.3    67 HOH   0.0000 
200 H1      11.0723    44.7452    36.3892 H      67 HOH   0.0000 
201 H2       9.8220    45.3923    37.0362 H      67 HOH   0.0000 
202 O       -6.2957    28.9612    46.7546 O.3    68 HOH   0.0000 
203 H1      -5.3357    28.9612    46.7546 H      68 HOH   0.0000 
204 H2      -6.5859    29.6082    47.4017 H      68 HOH   0.0000 
205 O        1.3762    24.0270    27.2546 O.3    69 HOH  -0.8340 
206 H1       1.1700    24.2566    28.1607 H      69 HOH   0.4170 
207 H2       1.6847    23.1221    27.3006 H      69 HOH   0.4170 
208 O       -9.9609    31.5284    41.0114 O.3    70 HOH   0.0000 
209 H1      -9.0009    31.5284    41.0114 H      70 HOH   0.0000 
210 H2     -10.2512    32.1754    41.6585 H      70 HOH   0.0000 
211 O      -16.9023     1.1089    29.1017 O.3    71 HOH   0.0000 
212 H1     -15.9423     1.1089    29.1017 H      71 HOH   0.0000 
213 H2     -17.1926     1.7560    29.7488 H      71 HOH   0.0000 
214 O       10.6403     6.6306    25.2896 O.3    72 HOH   0.0000 
215 H1      11.6003     6.6306    25.2896 H      72 HOH   0.0000 
216 H2      10.3500     7.2777    25.9367 H      72 HOH   0.0000 
217 O      -11.8566    19.5006    51.3148 O.3    73 HOH   0.0000 
218 H1     -10.8966    19.5006    51.3148 H      73 HOH   0.0000 
219 H2     -12.1468    20.1476    51.9618 H      73 HOH   0.0000 
220 O        4.4335    15.3571    18.6089 O.3    74 HOH   0.0000 
221 H1       5.3935    15.3571    18.6089 H      74 HOH   0.0000 
222 H2       4.1432    16.0042    19.2560 H      74 HOH   0.0000 
223 O        2.2622    17.6242    12.6169 O.3    75 HOH   0.0000 
224 H1       3.2222    17.6242    12.6169 H      75 HOH   0.0000 
225 H2       1.9720    18.2712    13.2640 H      75 HOH   0.0000 
226 O        4.3368     0.2651    22.0539 O.3    76 HOH   0.0000 
227 H1       5.2968     0.2651    22.0539 H      76 HOH   0.0000 
228 H2       4.0465     0.9121    22.7010 H      76 HOH   0.0000 
229 O      -12.5054     5.3083    45.1325 O.3    77 HOH   0.0000 
230 H1     -11.5454     5.3083    45.1325 H      77 HOH   0.0000 
231 H2     -12.7956     5.9553    45.7796 H      77 HOH   0.0000 
232 O      -16.6853    25.9873    38.5372 O.3    78 HOH   0.0000 
233 H1     -15.7253    25.9873    38.5372 H      78 HOH   0.0000 
234 H2     -16.9756    26.6344    39.1842 H      78 HOH   0.0000 
235 O      -13.0408    23.6529    18.5075 O.3    79 HOH   0.0000 
236 H1     -12.0808    23.6529    18.5075 H      79 HOH   0.0000 
237 H2     -13.3311    24.2999    19.1545 H      79 HOH   0.0000 
238 O      -18.6599    24.2580    37.1044 O.3    80 HOH   0.0000 
239 H1     -17.6999    24.2580    37.1044 H      80 HOH   0.0000 
240 H2     -18.9502    24.9051    37.7514 H      80 HOH   0.0000 
241 O      -25.8151     3.4532    26.1793 O.3    81 HOH   0.0000 
242 H1     -24.8551     3.4532    26.1793 H      81 HOH   0.0000 
243 H2     -26.1054     4.1002    26.8264 H      81 HOH   0.0000 
244 O      -21.9878     9.0448    37.6310 O.3    82 HOH   0.0000 
245 H1     -21.0278     9.0448    37.6310 H      82 HOH   0.0000 
246 H2     -22.2780     9.6918    38.2780 H      82 HOH   0.0000 
247 O        1.5160     8.9527     8.7572 O.3    83 HOH   0.0000 
248 H1       2.4760     8.9527     8.7572 H      83 HOH   0.0000 
249 H2       1.2257     9.5997     9.4043 H      83 HOH   0.0000 
250 O      -15.8237    22.3456    27.2608 O.3    84 HOH   0.0000 
251 H1     -14.8637    22.3456    27.2608 H      84 HOH   0.0000 
252 H2     -16.1140    22.9927    27.9079 H      84 HOH   0.0000 
253 O      -23.1753    30.8447    24.7745 O.3    85 HOH   0.0000 
254 H1     -22.2153    30.8447    24.7745 H      85 HOH   0.0000 
255 H2     -23.4655    31.4917    25.4215 H      85 HOH   0.0000 
256 O      -23.4621    11.7523    20.6079 O.3    86 HOH   0.0000 
257 H1     -22.5021    11.7523    20.6079 H      86 HOH   0.0000 
258 H2     -23.7523    12.3993    21.2550 H      86 HOH   0.0000 
259 O       -5.8116     5.9436    50.1393 O.3    87 HOH   0.0000 
260 H1      -4.8516     5.9436    50.1393 H      87 HOH   0.0000 
261 H2      -6.1019     6.5906    50.7864 H      87 HOH   0.0000 
262 O        4.4471    -0.9773    17.6771 O.3    88 HOH   0.0000 
263 H1       5.4071    -0.9773    17.6771 H      88 HOH   0.0000 
264 H2       4.1568    -0.3302    18.3241 H      88 HOH   0.0000 
265 O      -18.2930    13.0945    54.1158 O.3    89 HOH   0.0000 
266 H1     -17.3330    13.0945    54.1158 H      89 HOH   0.0000 
267 H2     -18.5833    13.7415    54.7628 H      89 HOH   0.0000 
268 O       11.6759    13.6055    38.4793 O.3    90 HOH   0.0000 
269 H1      12.6359    13.6055    38.4793 H      90 HOH   0.0000 
270 H2      11.3856    14.2526    39.1263 H      90 HOH   0.0000 
271 O       11.8021    38.8003    49.4830 O.3    91 HOH   0.0000 
272 H1      12.7621    38.8003    49.4830 H      91 HOH   0.0000 
273 H2      11.5118    39.4474    50.1301 H      91 HOH   0.0000 
274 O       -3.1638     4.2674    41.1466 O.3    92 HOH   0.0000 
275 H1      -2.2038     4.2674    41.1466 H      92 HOH   0.0000 
276 H2      -3.4540     4.9144    41.7937 H      92 HOH   0.0000 
277 O        8.5681    17.1236    31.4229 O.3    93 HOH  -0.8340 
278 H1       8.5954    16.9916    30.4752 H      93 HOH   0.4170 
279 H2       7.9801    16.4398    31.7436 H      93 HOH   0.4170 
280 O       -0.7736    27.7253    47.3223 O.3    94 HOH   0.0000 
281 H1       0.1864    27.7253    47.3223 H      94 HOH   0.0000 
282 H2      -1.0639    28.3724    47.9693 H      94 HOH   0.0000 
283 O       -2.2636     2.7181    29.2477 O.3    95 HOH   0.0000 
284 H1      -1.3036     2.7181    29.2477 H      95 HOH   0.0000 
285 H2      -2.5539     3.3652    29.8948 H      95 HOH   0.0000 
286 O        8.2893    10.9045    46.3606 O.3    96 HOH   0.0000 
287 H1       9.2493    10.9045    46.3606 H      96 HOH   0.0000 
288 H2       7.9990    11.5515    47.0077 H      96 HOH   0.0000 
289 O        3.8540    -1.3734    35.8147 O.3    97 HOH   0.0000 
290 H1       4.8140    -1.3734    35.8147 H      97 HOH   0.0000 
291 H2       3.5638    -0.7264    36.4618 H      97 HOH   0.0000 
292 O       -1.0742     6.5835    34.6083 O.3    98 HOH   0.0000 
293 H1      -0.1142     6.5835    34.6083 H      98 HOH   0.0000 
294 H2      -1.3645     7.2306    35.2553 H      98 HOH   0.0000 
295 O       -4.4631    -6.6325    18.6510 O.3    99 HOH   0.0000 
296 H1      -3.5031    -6.6325    18.6510 H      99 HOH   0.0000 
297 H2      -4.7533    -5.9855    19.2980 H      99 HOH   0.0000 
298 O      -19.8664     2.2438    17.7662 O.3   100 HOH   0.0000 
299 H1     -18.9064     2.2438    17.7662 H     100 HOH   0.0000 
300 H2     -20.1566     2.8909    18.4132 H     100 HOH   0.0000 
301 O       -6.1693    35.5015    29.8927 O.3   101 HOH   0.0000 
302 H1      -5.2093    35.5015    29.8927 H     101 HOH   0.0000 
303 H2      -6.4596    36.1486    30.5398 H     101 HOH   0.0000 
304 O       -2.7442    26.4926    48.1973 O.3   102 HOH   0.0000 
305 H1      -1.7842    26.4926    48.1973 H     102 HOH   0.0000 
306 H2      -3.0344    27.1396    48.8443 H     102 HOH   0.0000 
307 O      -18.6363     6.7236    16.5750 O.3   103 HOH   0.0000 
308 H1     -17.6763     6.7236    16.5750 H     103 HOH   0.0000 
309 H2     -18.9266     7.3707    17.2220 H     103 HOH   0.0000 
310 O      -20.6843    -1.6320    30.2021 O.3   104 HOH   0.0000 
311 H1     -19.7243    -1.6320    30.2021 H     104 HOH   0.0000 
312 H2     -20.9745    -0.9850    30.8491 H     104 HOH   0.0000 
313 O       15.8658    20.1475    40.2769 O.3   105 HOH   0.0000 
314 H1      16.8258    20.1475    40.2769 H     105 HOH   0.0000 
315 H2      15.5756    20.7945    40.9239 H     105 HOH   0.0000 
316 O      -21.9873    17.2354    16.3766 O.3   106 HOH   0.0000 
317 H1     -21.0273    17.2354    16.3766 H     106 HOH   0.0000 
318 H2     -22.2776    17.8824    17.0237 H     106 HOH   0.0000 
319 O       -4.3632    -4.9206    15.5371 O.3   107 HOH   0.0000 
320 H1      -3.4032    -4.9206    15.5371 H     107 HOH   0.0000 
321 H2      -4.6535    -4.2735    16.1842 H     107 HOH   0.0000 
322 O       -0.4326    34.6694    41.0513 O.3   108 HOH   0.0000 
323 H1       0.5274    34.6694    41.0513 H     108 HOH   0.0000 
324 H2      -0.7229    35.3164    41.6984 H     108 HOH   0.0000 
325 O       -1.7358     6.2048    39.2171 O.3   109 HOH   0.0000 
326 H1      -0.7758     6.2048    39.2171 H     109 HOH   0.0000 
327 H2      -2.0260     6.8519    39.8641 H     109 HOH   0.0000 
328 O       -0.6943     7.1962    37.3968 O.3   110 HOH   0.0000 
329 H1       0.2657     7.1962    37.3968 H     110 HOH   0.0000 
330 H2      -0.9846     7.8432    38.0438 H     110 HOH   0.0000 
331 O       -4.3192    14.7690    22.8488 O.3   111 HOH   0.0000 
332 H1      -3.3592    14.7690    22.8488 H     111 HOH   0.0000 
333 H2      -4.6095    15.4161    23.4959 H     111 HOH   0.0000 
334 O       14.4640    38.6496    36.4367 O.3   112 HOH   0.0000 
335 H1      15.4240    38.6496    36.4367 H     112 HOH   0.0000 
336 H2      14.1737    39.2966    37.0838 H     112 HOH   0.0000 
337 O       13.1655    19.7790    52.1539 O.3   113 HOH   0.0000 
338 H1      14.1255    19.7790    52.1539 H     113 HOH   0.0000 
339 H2      12.8752    20.4260    52.8010 H     113 HOH   0.0000 
340 O        9.9807    19.4446    32.4292 O.3   114 HOH  -0.8340 
341 H1       9.6883    18.5342    32.3859 H     114 HOH   0.4170 
342 H2      10.2845    19.6415    31.5432 H     114 HOH   0.4170 
343 O       -6.9233    20.6864    52.6863 O.3   115 HOH   0.0000 
344 H1      -5.9633    20.6864    52.6863 H     115 HOH   0.0000 
345 H2      -7.2136    21.3335    53.3333 H     115 HOH   0.0000 
346 O      -15.4635    28.4119    20.1943 O.3   116 HOH   0.0000 
347 H1     -14.5035    28.4119    20.1943 H     116 HOH   0.0000 
348 H2     -15.7537    29.0589    20.8413 H     116 HOH   0.0000 
@<TRIPOS>BOND
  1   1   2  1   
  2   1   3  1   
  3   4   5  1   
  4   4   6  1   
  5   7   8  1   
  6   7   9  1   
  7  10  11  1   
  8  10  12  1   
  9  13  14  1   
 10  13  15  1   
 11  16  17  1   
 12  16  18  1   
 13  19  20  1   
 14  19  21  1   
 15  22  23  1   
 16  22  24  1   
 17  25  26  1   
 18  25  27  1   
 19  28  29  1   
 20  28  30  1   
 21  31  32  1   
 22  31  33  1   
 23  34  35  1   
 24  34  36  1   
 25  37  38  1   
 26  37  39  1   
 27  40  41  1   
 28  40  42  1   
 29  43  44  1   
 30  43  45  1   
 31  46  47  1   
 32  46  48  1   
 33  49  50  1   
 34  49  51  1   
 35  52  53  1   
 36  52  54  1   
 37  55  56  1   
 38  55  57  1   
 39  58  59  1   
 40  58  60  1   
 41  61  62  1   
 42  61  63  1   
 43  64  65  1   
 44  64  66  1   
 45  67  68  1   
 46  67  69  1   
 47  70  71  1   
 48  70  72  1   
 49  73  74  1   
 50  73  75  1   
 51  76  77  1   
 52  76  78  1   
 53  79  80  1   
 54  79  81  1   
 55  82  83  1   
 56  82  84  1   
 57  85  86  1   
 58  85  87  1   
 59  88  89  1   
 60  88  90  1   
 61  91  92  1   
 62  91  93  1   
 63  94  95  1   
 64  94  96  1   
 65  97  98  1   
 66  97  99  1   
 67 100 101  1   
 68 100 102  1   
 69 103 104  1   
 70 103 105  1   
 71 106 107  1   
 72 106 108  1   
 73 109 110  1   
 74 109 111  1   
 75 112 113  1   
 76 112 114  1   
 77 115 116  1   
 78 115 117  1   
 79 118 119  1   
 80 118 120  1   
 81 121 122  1   
 82 121 123  1   
 83 124 125  1   
 84 124 126  1   
 85 127 128  1   
 86 127 129  1   
 87 130 131  1   
 88 130 132  1   
 89 133 134  1   
 90 133 135  1   
 91 136 137  1   
 92 136 138  1   
 93 139 140  1   
 94 139 141  1   
 95 142 143  1   
 96 142 144  1   
 97 145 146  1   
 98 145 147  1   
 99 148 149  1   
100 148 150  1   
101 151 152  1   
102 151 153  1   
103 154 155  1   
104 154 156  1   
105 157 158  1   
106 157 159  1   
107 160 161  1   
108 160 162  1   
109 163 164  1   
110 163 165  1   
111 166 167  1   
112 166 168  1   
113 169 170  1   
114 169 171  1   
115 172 173  1   
116 172 174  1   
117 175 176  1   
118 175 177  1   
119 178 179  1   
120 178 180  1   
121 181 182  1   
122 181 183  1   
123 184 185  1   
124 184 186  1   
125 187 188  1   
126 187 189  1   
127 190 191  1   
128 190 192  1   
129 193 194  1   
130 193 195  1   
131 196 197  1   
132 196 198  1   
133 199 200  1   
134 199 201  1   
135 202 203  1   
136 202 204  1   
137 205 206  1   
138 205 207  1   
139 208 209  1   
140 208 210  1   
141 211 212  1   
142 211 213  1   
143 214 215  1   
144 214 216  1   
145 217 218  1   
146 217 219  1   
147 220 221  1   
148 220 222  1   
149 223 224  1   
150 223 225  1   
151 226 227  1   
152 226 228  1   
153 229 230  1   
154 229 231  1   
155 232 233  1   
156 232 234  1   
157 235 236  1   
158 235 237  1   
159 238 239  1   
160 238 240  1   
161 241 242  1   
162 241 243  1   
163 244 245  1   
164 244 246  1   
165 247 248  1   
166 247 249  1   
167 250 251  1   
168 250 252  1   
169 253 254  1   
170 253 255  1   
171 256 257  1   
172 256 258  1   
173 259 260  1   
174 259 261  1   
175 262 263  1   
176 262 264  1   
177 265 266  1   
178 265 267  1   
179 268 269  1   
180 268 270  1   
181 271 272  1   
182 271 273  1   
183 274 275  1   
184 274 276  1   
185 277 278  1   
186 277 279  1   
187 280 281  1   
188 280 282  1   
189 283 284  1   
190 283 285  1   
191 286 287  1   
192 286 288  1   
193 289 290  1   
194 289 291  1   
195 292 293  1   
196 292 294  1   
197 295 296  1   
198 295 297  1   
199 298 299  1   
200 298 300  1   
201 301 302  1   
202 301 303  1   
203 304 305  1   
204 304 306  1   
205 307 308  1   
206 307 309  1   
207 310 311  1   
208 310 312  1   
209 313 314  1   
210 313 315  1   
211 316 317  1   
212 316 318  1   
213 319 320  1   
214 319 321  1   
215 322 323  1   
216 322 324  1   
217 325 326  1   
218 325 327  1   
219 328 329  1   
220 328 330  1   
221 331 332  1   
222 331 333  1   
223 334 335  1   
224 334 336  1   
225 337 338  1   
226 337 339  1   
227 340 341  1   
228 340 342  1   
229 343 344  1   
230 343 345  1   
231 346 347  1   
232 346 348  1   
@<TRIPOS>SUBSTRUCTURE
  1 HOH   1 GROUP 4 B **** 0
  2 HOH   4 GROUP 4 B **** 0
  3 HOH   7 GROUP 4 B **** 0
  4 HOH  10 GROUP 4 B **** 0
  5 HOH  13 GROUP 4 B **** 0
  6 HOH  16 GROUP 4 B **** 0
  7 HOH  19 GROUP 4 B **** 0
  8 HOH  22 GROUP 4 B **** 0
  9 HOH  25 GROUP 4 B **** 0
 10 HOH  28 GROUP 4 B **** 0
 11 HOH  31 GROUP 4 B **** 0
 12 HOH  34 GROUP 4 B **** 0
 13 HOH  37 GROUP 4 B **** 0
 14 HOH  40 GROUP 4 B **** 0
 15 HOH  43 GROUP 4 B **** 0
 16 HOH  46 GROUP 4 B **** 0
 17 HOH  49 GROUP 4 B **** 0
 18 HOH  52 GROUP 4 B **** 0
 19 HOH  55 GROUP 4 B **** 0
 20 HOH  58 GROUP 4 B **** 0
 21 HOH  61 GROUP 4 B **** 0
 22 HOH  64 GROUP 4 B **** 0
 23 HOH  67 GROUP 4 B **** 0
 24 HOH  70 GROUP 4 B **** 0
 25 HOH  73 GROUP 4 B **** 0
 26 HOH  76 GROUP 4 B **** 0
 27 HOH  79 GROUP 4 B **** 0
 28 HOH  82 GROUP 4 B **** 0
 29 HOH  85 GROUP 4 B **** 0
 30 HOH  88 GROUP 4 B **** 0
 31 HOH  91 GROUP 4 B **** 0
 32 HOH  94 GROUP 4 B **** 0
 33 HOH  97 GROUP 4 B **** 0
 34 HOH 100 GROUP 4 B **** 0
 35 HOH 103 GROUP 4 B **** 0
 36 HOH 106 GROUP 4 B **** 0
 37 HOH 109 GROUP 4 B **** 0
 38 HOH 112 GROUP 4 B **** 0
 39 HOH 115 GROUP 4 B **** 0
 40 HOH 118 GROUP 4 B **** 0
 41 HOH 121 GROUP 4 B **** 0
 42 HOH 124 GROUP 4 B **** 0
 43 HOH 127 GROUP 4 B **** 0
 44 HOH 130 GROUP 4 B **** 0
 45 HOH 133 GROUP 4 B **** 0
 46 HOH 136 GROUP 4 B **** 0
 47 HOH 139 GROUP 4 B **** 0
 48 HOH 142 GROUP 4 B **** 0
 49 HOH 145 GROUP 4 B **** 0
 50 HOH 148 GROUP 4 B **** 0
 51 HOH 151 GROUP 4 B **** 0
 52 HOH 154 GROUP 4 B **** 0
 53 HOH 157 GROUP 4 B **** 0
 54 HOH 160 GROUP 4 B **** 0
 55 HOH 163 GROUP 4 B **** 0
 56 HOH 166 GROUP 4 B **** 0
 57 HOH 169 GROUP 4 B **** 0
 58 HOH 172 GROUP 4 B **** 0
 59 HOH 175 GROUP 4 B **** 0
 60 HOH 178 GROUP 4 B **** 0
 61 HOH 181 GROUP 4 B **** 0
 62 HOH 184 GROUP 4 B **** 0
 63 HOH 187 GROUP 4 B **** 0
 64 HOH 190 GROUP 4 B **** 0
 65 HOH 193 GROUP 4 B **** 0
 66 HOH 196 GROUP 4 B **** 0
 67 HOH 199 GROUP 4 B **** 0
 68 HOH 202 GROUP 4 B **** 0
 69 HOH 205 GROUP 4 B **** 0
 70 HOH 208 GROUP 4 B **** 0
 71 HOH 211 GROUP 4 B **** 0
 72 HOH 214 GROUP 4 B **** 0
 73 HOH 217 GROUP 4 B **** 0
 74 HOH 220 GROUP 4 B **** 0
 75 HOH 223 GROUP 4 B **** 0
 76 HOH 226 GROUP 4 B **** 0
 77 HOH 229 GROUP 4 B **** 0
 78 HOH 232 GROUP 4 B **** 0
 79 HOH 235 GROUP 4 B **** 0
 80 HOH 238 GROUP 4 B **** 0
 81 HOH 241 GROUP 4 B **** 0
 82 HOH 244 GROUP 4 B **** 0
 83 HOH 247 GROUP 4 B **** 0
 84 HOH 250 GROUP 4 B **** 0
 85 HOH 253 GROUP 4 B **** 0
 86 HOH 256 GROUP 4 B **** 0
 87 HOH 259 GROUP 4 B **** 0
 88 HOH 262 GROUP 4 B **** 0
 89 HOH 265 GROUP 4 B **** 0
 90 HOH 268 GROUP 4 B **** 0
 91 HOH 271 GROUP 4 B **** 0
 92 HOH 274 GROUP 4 B **** 0
 93 HOH 277 GROUP 4 B **** 0
 94 HOH 280 GROUP 4 B **** 0
 95 HOH 283 GROUP 4 B **** 0
 96 HOH 286 GROUP 4 B **** 0
 97 HOH 289 GROUP 4 B **** 0
 98 HOH 292 GROUP 4 B **** 0
 99 HOH 295 GROUP 4 B **** 0
100 HOH 298 GROUP 4 B **** 0
101 HOH 301 GROUP 4 B **** 0
102 HOH 304 GROUP 4 B **** 0
103 HOH 307 GROUP 4 B **** 0
104 HOH 310 GROUP 4 B **** 0
105 HOH 313 GROUP 4 B **** 0
106 HOH 316 GROUP 4 B **** 0
107 HOH 319 GROUP 4 B **** 0
108 HOH 322 GROUP 4 B **** 0
109 HOH 325 GROUP 4 B **** 0
110 HOH 328 GROUP 4 B **** 0
111 HOH 331 GROUP 4 B **** 0
112 HOH 334 GROUP 4 B **** 0
113 HOH 337 GROUP 4 B **** 0
114 HOH 340 GROUP 4 B **** 0
115 HOH 343 GROUP 4 B **** 0
116 HOH 346 GROUP 4 B **** 0

# MOE 2012.10 (io_trps.svl 2012.10)
