@<TRIPOS>MOLECULE
6bl8.B
261 174 87 0 0 
SMALL
NO_CHARGES


@<TRIPOS>ATOM
  1 O       -3.7541    22.5604    16.3419 O.3    1 HOH   0.0000 
  2 H1      -2.7941    22.5604    16.3419 H      1 HOH   0.0000 
  3 H2      -4.0444    23.2075    16.9889 H      1 HOH   0.0000 
  4 O       -4.2131    28.9980    38.3710 O.3    2 HOH   0.0000 
  5 H1      -3.2531    28.9980    38.3710 H      2 HOH   0.0000 
  6 H2      -4.5034    29.6451    39.0180 H      2 HOH   0.0000 
  7 O      -15.3823    12.7624    10.9605 O.3    3 HOH   0.0000 
  8 H1     -14.4223    12.7624    10.9605 H      3 HOH   0.0000 
  9 H2     -15.6726    13.4095    11.6076 H      3 HOH   0.0000 
 10 O      -18.5201    -0.1903    14.3630 O.3    4 HOH   0.0000 
 11 H1     -17.5601    -0.1903    14.3630 H      4 HOH   0.0000 
 12 H2     -18.8104     0.4567    15.0101 H      4 HOH   0.0000 
 13 O       -7.4832     5.9933    21.2219 O.3    5 HOH   0.0000 
 14 H1      -6.5232     5.9933    21.2219 H      5 HOH   0.0000 
 15 H2      -7.7735     6.6403    21.8690 H      5 HOH   0.0000 
 16 O      -15.5193     4.9813    40.5280 O.3    6 HOH   0.0000 
 17 H1     -14.5593     4.9813    40.5280 H      6 HOH   0.0000 
 18 H2     -15.8096     5.6283    41.1751 H      6 HOH   0.0000 
 19 O      -12.2882    29.6297    36.0807 O.3    7 HOH   0.0000 
 20 H1     -11.3282    29.6297    36.0807 H      7 HOH   0.0000 
 21 H2     -12.5785    30.2767    36.7278 H      7 HOH   0.0000 
 22 O       -9.7855    -7.5907    12.3816 O.3    8 HOH   0.0000 
 23 H1      -8.8255    -7.5907    12.3816 H      8 HOH   0.0000 
 24 H2     -10.0758    -6.9437    13.0287 H      8 HOH   0.0000 
 25 O       -8.5673    -0.2869    10.1237 O.3    9 HOH   0.0000 
 26 H1      -7.6073    -0.2869    10.1237 H      9 HOH   0.0000 
 27 H2      -8.8576     0.3601    10.7707 H      9 HOH   0.0000 
 28 O       -4.3886    16.0291    15.0742 O.3   10 HOH   0.0000 
 29 H1      -3.4286    16.0291    15.0742 H     10 HOH   0.0000 
 30 H2      -4.6789    16.6762    15.7213 H     10 HOH   0.0000 
 31 O      -24.5598    27.5289    24.2050 O.3   11 HOH   0.0000 
 32 H1     -23.5998    27.5289    24.2050 H     11 HOH   0.0000 
 33 H2     -24.8501    28.1760    24.8520 H     11 HOH   0.0000 
 34 O      -22.3582    14.0721    18.5395 O.3   12 HOH   0.0000 
 35 H1     -21.3982    14.0721    18.5395 H     12 HOH   0.0000 
 36 H2     -22.6485    14.7191    19.1866 H     12 HOH   0.0000 
 37 O       -6.4547     4.0598     8.9099 O.3   13 HOH   0.0000 
 38 H1      -5.4947     4.0598     8.9099 H     13 HOH   0.0000 
 39 H2      -6.7449     4.7068     9.5569 H     13 HOH   0.0000 
 40 O        9.4378    16.5611    19.4396 O.3   14 HOH   0.0000 
 41 H1      10.3978    16.5611    19.4396 H     14 HOH   0.0000 
 42 H2       9.1475    17.2082    20.0866 H     14 HOH   0.0000 
 43 O       -9.2251     6.3455    33.8773 O.3   15 HOH   0.0000 
 44 H1      -8.2651     6.3455    33.8773 H     15 HOH   0.0000 
 45 H2      -9.5154     6.9925    34.5243 H     15 HOH   0.0000 
 46 O      -15.7658     0.3193    25.5681 O.3   16 HOH   0.0000 
 47 H1     -14.8058     0.3193    25.5681 H     16 HOH   0.0000 
 48 H2     -16.0561     0.9664    26.2151 H     16 HOH   0.0000 
 49 O       -9.8824    23.9082    17.5508 O.3   17 HOH   0.0000 
 50 H1      -8.9224    23.9082    17.5508 H     17 HOH   0.0000 
 51 H2     -10.1727    24.5552    18.1978 H     17 HOH   0.0000 
 52 O      -27.0519    30.8150    30.5738 O.3   18 HOH   0.0000 
 53 H1     -26.0919    30.8150    30.5738 H     18 HOH   0.0000 
 54 H2     -27.3422    31.4620    31.2208 H     18 HOH   0.0000 
 55 O      -28.1226    21.5056    32.0534 O.3   19 HOH   0.0000 
 56 H1     -27.1626    21.5056    32.0534 H     19 HOH   0.0000 
 57 H2     -28.4129    22.1526    32.7005 H     19 HOH   0.0000 
 58 O       -6.4855     9.6366    33.9633 O.3   20 HOH   0.0000 
 59 H1      -5.5255     9.6366    33.9633 H     20 HOH   0.0000 
 60 H2      -6.7758    10.2837    34.6103 H     20 HOH   0.0000 
 61 O       -8.1539    24.8335    47.3201 O.3   21 HOH   0.0000 
 62 H1      -7.1939    24.8335    47.3201 H     21 HOH   0.0000 
 63 H2      -8.4442    25.4806    47.9671 H     21 HOH   0.0000 
 64 O      -21.0382    25.6370    21.4553 O.3   22 HOH   0.0000 
 65 H1     -20.0782    25.6370    21.4553 H     22 HOH   0.0000 
 66 H2     -21.3285    26.2841    22.1023 H     22 HOH   0.0000 
 67 O       -8.1233    10.4915    11.7358 O.3   23 HOH   0.0000 
 68 H1      -7.1633    10.4915    11.7358 H     23 HOH   0.0000 
 69 H2      -8.4136    11.1386    12.3828 H     23 HOH   0.0000 
 70 O       -4.0107    15.3418    25.4660 O.3   24 HOH   0.0000 
 71 H1      -3.0507    15.3418    25.4660 H     24 HOH   0.0000 
 72 H2      -4.3010    15.9889    26.1130 H     24 HOH   0.0000 
 73 O       -2.8493    15.6989    21.9066 O.3   25 HOH   0.0000 
 74 H1      -1.8893    15.6989    21.9066 H     25 HOH   0.0000 
 75 H2      -3.1396    16.3459    22.5537 H     25 HOH   0.0000 
 76 O      -13.0322    19.7431    46.6912 O.3   26 HOH   0.0000 
 77 H1     -12.0722    19.7431    46.6912 H     26 HOH   0.0000 
 78 H2     -13.3224    20.3902    47.3382 H     26 HOH   0.0000 
 79 O       -9.3749     6.9246    22.7570 O.3   27 HOH   0.0000 
 80 H1      -8.4149     6.9246    22.7570 H     27 HOH   0.0000 
 81 H2      -9.6652     7.5717    23.4041 H     27 HOH   0.0000 
 82 O      -15.3864     2.9099     9.5695 O.3   28 HOH   0.0000 
 83 H1     -14.4264     2.9099     9.5695 H     28 HOH   0.0000 
 84 H2     -15.6766     3.5569    10.2165 H     28 HOH   0.0000 
 85 O      -17.8542     9.5997    17.6885 O.3   29 HOH   0.0000 
 86 H1     -16.8942     9.5997    17.6885 H     29 HOH   0.0000 
 87 H2     -18.1445    10.2467    18.3356 H     29 HOH   0.0000 
 88 O      -19.3232    22.9177    43.3985 O.3   30 HOH   0.0000 
 89 H1     -18.3632    22.9177    43.3985 H     30 HOH   0.0000 
 90 H2     -19.6134    23.5648    44.0456 H     30 HOH   0.0000 
 91 O        1.4523    18.6046    30.7725 O.3   31 HOH   0.0000 
 92 H1       2.4123    18.6046    30.7725 H     31 HOH   0.0000 
 93 H2       1.1620    19.2516    31.4195 H     31 HOH   0.0000 
 94 O      -16.1531    29.7006    24.8773 O.3   32 HOH   0.0000 
 95 H1     -15.1931    29.7006    24.8773 H     32 HOH   0.0000 
 96 H2     -16.4433    30.3476    25.5244 H     32 HOH   0.0000 
 97 O      -24.3485     4.6255    23.9817 O.3   33 HOH   0.0000 
 98 H1     -23.3885     4.6255    23.9817 H     33 HOH   0.0000 
 99 H2     -24.6388     5.2726    24.6287 H     33 HOH   0.0000 
100 O      -14.6237     6.1849    22.3259 O.3   34 HOH   0.0000 
101 H1     -13.6637     6.1849    22.3259 H     34 HOH   0.0000 
102 H2     -14.9139     6.8319    22.9729 H     34 HOH   0.0000 
103 O       -4.2595    -0.4320    18.6785 O.3   35 HOH   0.0000 
104 H1      -3.2995    -0.4320    18.6785 H     35 HOH   0.0000 
105 H2      -4.5497     0.2151    19.3256 H     35 HOH   0.0000 
106 O      -13.9996     6.3219    12.7783 O.3   36 HOH   0.0000 
107 H1     -13.0396     6.3219    12.7783 H     36 HOH   0.0000 
108 H2     -14.2898     6.9689    13.4254 H     36 HOH   0.0000 
109 O      -12.9511    23.7876    14.3633 O.3   37 HOH   0.0000 
110 H1     -11.9911    23.7876    14.3633 H     37 HOH   0.0000 
111 H2     -13.2413    24.4347    15.0103 H     37 HOH   0.0000 
112 O       -2.0582    29.8191    35.3155 O.3   38 HOH   0.0000 
113 H1      -1.0982    29.8191    35.3155 H     38 HOH   0.0000 
114 H2      -2.3485    30.4661    35.9626 H     38 HOH   0.0000 
115 O       -3.7393    25.9394    19.9438 O.3   39 HOH   0.0000 
116 H1      -2.7793    25.9394    19.9438 H     39 HOH   0.0000 
117 H2      -4.0295    26.5865    20.5908 H     39 HOH   0.0000 
118 O      -14.3796    28.1021    17.1910 O.3   40 HOH   0.0000 
119 H1     -13.4196    28.1021    17.1910 H     40 HOH   0.0000 
120 H2     -14.6699    28.7491    17.8380 H     40 HOH   0.0000 
121 O        5.2498    22.0746    13.3167 O.3   41 HOH   0.0000 
122 H1       6.2098    22.0746    13.3167 H     41 HOH   0.0000 
123 H2       4.9595    22.7216    13.9637 H     41 HOH   0.0000 
124 O      -19.7758    -1.2374    26.7677 O.3   42 HOH   0.0000 
125 H1     -18.8158    -1.2374    26.7677 H     42 HOH   0.0000 
126 H2     -20.0661    -0.5904    27.4147 H     42 HOH   0.0000 
127 O        1.9690    28.6057    35.4201 O.3   43 HOH   0.0000 
128 H1       2.9290    28.6057    35.4201 H     43 HOH   0.0000 
129 H2       1.6787    29.2527    36.0672 H     43 HOH   0.0000 
130 O       -1.4048     2.5702    26.2521 O.3   44 HOH   0.0000 
131 H1      -0.4448     2.5702    26.2521 H     44 HOH   0.0000 
132 H2      -1.6951     3.2172    26.8992 H     44 HOH   0.0000 
133 O      -15.4834    21.9382    13.9741 O.3   45 HOH   0.0000 
134 H1     -14.5234    21.9382    13.9741 H     45 HOH   0.0000 
135 H2     -15.7737    22.5852    14.6211 H     45 HOH   0.0000 
136 O       -5.4385    -1.9456    16.0177 O.3   46 HOH   0.0000 
137 H1      -4.4785    -1.9456    16.0177 H     46 HOH   0.0000 
138 H2      -5.7288    -1.2986    16.6648 H     46 HOH   0.0000 
139 O       -8.9947    -7.3363    23.4949 O.3   47 HOH   0.0000 
140 H1      -8.0347    -7.3363    23.4949 H     47 HOH   0.0000 
141 H2      -9.2850    -6.6892    24.1419 H     47 HOH   0.0000 
142 O      -29.9799    25.7916    25.8206 O.3   48 HOH   0.0000 
143 H1     -29.0199    25.7916    25.8206 H     48 HOH   0.0000 
144 H2     -30.2701    26.4386    26.4676 H     48 HOH   0.0000 
145 O       -5.8369    -4.5603    15.3069 O.3   49 HOH   0.0000 
146 H1      -4.8769    -4.5603    15.3069 H     49 HOH   0.0000 
147 H2      -6.1272    -3.9133    15.9539 H     49 HOH   0.0000 
148 O       -5.8957    23.9066    46.4970 O.3   50 HOH   0.0000 
149 H1      -4.9357    23.9066    46.4970 H     50 HOH   0.0000 
150 H2      -6.1860    24.5537    47.1440 H     50 HOH   0.0000 
151 O       -8.6970     4.6742     7.3793 O.3   51 HOH   0.0000 
152 H1      -7.7370     4.6742     7.3793 H     51 HOH   0.0000 
153 H2      -8.9873     5.3213     8.0264 H     51 HOH   0.0000 
154 O      -29.0243    15.7140    28.1648 O.3   52 HOH   0.0000 
155 H1     -28.0643    15.7140    28.1648 H     52 HOH   0.0000 
156 H2     -29.3146    16.3610    28.8119 H     52 HOH   0.0000 
157 O       -4.0367     3.4669    27.3993 O.3   53 HOH   0.0000 
158 H1      -3.0767     3.4669    27.3993 H     53 HOH   0.0000 
159 H2      -4.3269     4.1140    28.0463 H     53 HOH   0.0000 
160 O       -2.1075    11.2256    24.6105 O.3   54 HOH   0.0000 
161 H1      -1.1475    11.2256    24.6105 H     54 HOH   0.0000 
162 H2      -2.3978    11.8727    25.2575 H     54 HOH   0.0000 
163 O      -30.2655    13.1548    29.1479 O.3   55 HOH   0.0000 
164 H1     -29.3055    13.1548    29.1479 H     55 HOH   0.0000 
165 H2     -30.5557    13.8018    29.7950 H     55 HOH   0.0000 
166 O      -18.1372     1.2878    26.4191 O.3   56 HOH   0.0000 
167 H1     -17.1772     1.2878    26.4191 H     56 HOH   0.0000 
168 H2     -18.4275     1.9349    27.0661 H     56 HOH   0.0000 
169 O       -5.3256    -7.4896    15.4376 O.3   57 HOH   0.0000 
170 H1      -4.3656    -7.4896    15.4376 H     57 HOH   0.0000 
171 H2      -5.6159    -6.8425    16.0847 H     57 HOH   0.0000 
172 O      -32.7816    26.2966    33.3620 O.3   58 HOH   0.0000 
173 H1     -31.8216    26.2966    33.3620 H     58 HOH   0.0000 
174 H2     -33.0718    26.9436    34.0091 H     58 HOH   0.0000 
175 O      -25.7454     9.7993    20.1399 O.3   59 HOH   0.0000 
176 H1     -24.7854     9.7993    20.1399 H     59 HOH   0.0000 
177 H2     -26.0357    10.4463    20.7869 H     59 HOH   0.0000 
178 O       -8.5277    -2.8836    30.1651 O.3   60 HOH   0.0000 
179 H1      -7.5677    -2.8836    30.1651 H     60 HOH   0.0000 
180 H2      -8.8179    -2.2366    30.8122 H     60 HOH   0.0000 
181 O      -23.4793    31.4064    28.5402 O.3   61 HOH   0.0000 
182 H1     -22.5193    31.4064    28.5402 H     61 HOH   0.0000 
183 H2     -23.7696    32.0534    29.1872 H     61 HOH   0.0000 
184 O       18.3536    24.5684    45.3842 O.3   62 HOH   0.0000 
185 H1      19.3136    24.5684    45.3842 H     62 HOH   0.0000 
186 H2      18.0633    25.2154    46.0313 H     62 HOH   0.0000 
187 O      -14.9444    14.6505     6.1187 O.3   63 HOH   0.0000 
188 H1     -13.9844    14.6505     6.1187 H     63 HOH   0.0000 
189 H2     -15.2347    15.2976     6.7657 H     63 HOH   0.0000 
190 O      -10.8165    31.0693    28.7358 O.3   64 HOH   0.0000 
191 H1      -9.8565    31.0693    28.7358 H     64 HOH   0.0000 
192 H2     -11.1068    31.7163    29.3829 H     64 HOH   0.0000 
193 O       -8.8523    12.1406    46.9588 O.3   65 HOH   0.0000 
194 H1      -7.8923    12.1406    46.9588 H     65 HOH   0.0000 
195 H2      -9.1426    12.7876    47.6059 H     65 HOH   0.0000 
196 O      -22.2772    33.8572    30.8511 O.3   66 HOH   0.0000 
197 H1     -21.3172    33.8572    30.8511 H     66 HOH   0.0000 
198 H2     -22.5675    34.5043    31.4981 H     66 HOH   0.0000 
199 O      -29.7654    14.4151    43.8684 O.3   67 HOH   0.0000 
200 H1     -28.8054    14.4151    43.8684 H     67 HOH   0.0000 
201 H2     -30.0557    15.0621    44.5155 H     67 HOH   0.0000 
202 O      -25.2404    23.5956    25.0737 O.3   68 HOH   0.0000 
203 H1     -24.2804    23.5956    25.0737 H     68 HOH   0.0000 
204 H2     -25.5306    24.2426    25.7207 H     68 HOH   0.0000 
205 O       -3.2240    13.4946    23.7773 O.3   69 HOH   0.0000 
206 H1      -2.2640    13.4946    23.7773 H     69 HOH   0.0000 
207 H2      -3.5143    14.1416    24.4243 H     69 HOH   0.0000 
208 O       -0.8867    28.1803    46.7832 O.3   70 HOH   0.0000 
209 H1       0.0733    28.1803    46.7832 H     70 HOH   0.0000 
210 H2      -1.1770    28.8274    47.4302 H     70 HOH   0.0000 
211 O       -5.2118    33.3388    37.1615 O.3   71 HOH   0.0000 
212 H1      -4.2518    33.3388    37.1615 H     71 HOH   0.0000 
213 H2      -5.5021    33.9859    37.8085 H     71 HOH   0.0000 
214 O       -5.6213    -1.3045    29.8310 O.3   72 HOH   0.0000 
215 H1      -4.6613    -1.3045    29.8310 H     72 HOH   0.0000 
216 H2      -5.9116    -0.6575    30.4780 H     72 HOH   0.0000 
217 O        8.5301    22.2558    26.9662 O.3   73 HOH   0.0000 
218 H1       9.4901    22.2558    26.9662 H     73 HOH   0.0000 
219 H2       8.2399    22.9029    27.6133 H     73 HOH   0.0000 
220 O        5.6556    23.0884    15.8962 O.3   74 HOH   0.0000 
221 H1       6.6156    23.0884    15.8962 H     74 HOH   0.0000 
222 H2       5.3654    23.7355    16.5433 H     74 HOH   0.0000 
223 O      -18.6910     9.0860    15.2474 O.3   75 HOH   0.0000 
224 H1     -17.7310     9.0860    15.2474 H     75 HOH   0.0000 
225 H2     -18.9813     9.7330    15.8945 H     75 HOH   0.0000 
226 O        7.9318    17.5854    36.0663 O.3   76 HOH   0.0000 
227 H1       8.8918    17.5854    36.0663 H     76 HOH   0.0000 
228 H2       7.6415    18.2325    36.7133 H     76 HOH   0.0000 
229 O        7.6375    23.3828    17.7125 O.3   77 HOH   0.0000 
230 H1       8.5975    23.3828    17.7125 H     77 HOH   0.0000 
231 H2       7.3472    24.0298    18.3595 H     77 HOH   0.0000 
232 O       -7.4143    -5.9671    28.8821 O.3   78 HOH   0.0000 
233 H1      -6.4543    -5.9671    28.8821 H     78 HOH   0.0000 
234 H2      -7.7046    -5.3201    29.5292 H     78 HOH   0.0000 
235 O      -23.4962     3.5924    21.6240 O.3   79 HOH   0.0000 
236 H1     -22.5362     3.5924    21.6240 H     79 HOH   0.0000 
237 H2     -23.7864     4.2395    22.2710 H     79 HOH   0.0000 
238 O       -6.1308     8.4712    11.2529 O.3   80 HOH   0.0000 
239 H1      -5.1708     8.4712    11.2529 H     80 HOH   0.0000 
240 H2      -6.4211     9.1183    11.9000 H     80 HOH   0.0000 
241 O       -9.3622    32.3624    26.6746 O.3   81 HOH   0.0000 
242 H1      -8.4022    32.3624    26.6746 H     81 HOH   0.0000 
243 H2      -9.6525    33.0095    27.3217 H     81 HOH   0.0000 
244 O       -8.6432    11.8360     9.0400 O.3   82 HOH   0.0000 
245 H1      -7.6832    11.8360     9.0400 H     82 HOH   0.0000 
246 H2      -8.9335    12.4831     9.6871 H     82 HOH   0.0000 
247 O      -24.0446    25.1410    23.1365 O.3   83 HOH   0.0000 
248 H1     -23.0846    25.1410    23.1365 H     83 HOH   0.0000 
249 H2     -24.3349    25.7881    23.7835 H     83 HOH   0.0000 
250 O       -9.3511    -2.1591    32.5992 O.3   84 HOH   0.0000 
251 H1      -8.3911    -2.1591    32.5992 H     84 HOH   0.0000 
252 H2      -9.6413    -1.5120    33.2463 H     84 HOH   0.0000 
253 O      -14.5205     2.8199    39.2187 O.3   85 HOH   0.0000 
254 H1     -13.5605     2.8199    39.2187 H     85 HOH   0.0000 
255 H2     -14.8108     3.4669    39.8657 H     85 HOH   0.0000 
256 O       -6.2291    -1.0507    11.2218 O.3   86 HOH   0.0000 
257 H1      -5.2691    -1.0507    11.2218 H     86 HOH   0.0000 
258 H2      -6.5194    -0.4037    11.8689 H     86 HOH   0.0000 
259 O      -21.1609    24.2359    41.9234 O.3   87 HOH   0.0000 
260 H1     -20.2009    24.2359    41.9234 H     87 HOH   0.0000 
261 H2     -21.4512    24.8829    42.5705 H     87 HOH   0.0000 
@<TRIPOS>BOND
  1   1   2  1   
  2   1   3  1   
  3   4   5  1   
  4   4   6  1   
  5   7   8  1   
  6   7   9  1   
  7  10  11  1   
  8  10  12  1   
  9  13  14  1   
 10  13  15  1   
 11  16  17  1   
 12  16  18  1   
 13  19  20  1   
 14  19  21  1   
 15  22  23  1   
 16  22  24  1   
 17  25  26  1   
 18  25  27  1   
 19  28  29  1   
 20  28  30  1   
 21  31  32  1   
 22  31  33  1   
 23  34  35  1   
 24  34  36  1   
 25  37  38  1   
 26  37  39  1   
 27  40  41  1   
 28  40  42  1   
 29  43  44  1   
 30  43  45  1   
 31  46  47  1   
 32  46  48  1   
 33  49  50  1   
 34  49  51  1   
 35  52  53  1   
 36  52  54  1   
 37  55  56  1   
 38  55  57  1   
 39  58  59  1   
 40  58  60  1   
 41  61  62  1   
 42  61  63  1   
 43  64  65  1   
 44  64  66  1   
 45  67  68  1   
 46  67  69  1   
 47  70  71  1   
 48  70  72  1   
 49  73  74  1   
 50  73  75  1   
 51  76  77  1   
 52  76  78  1   
 53  79  80  1   
 54  79  81  1   
 55  82  83  1   
 56  82  84  1   
 57  85  86  1   
 58  85  87  1   
 59  88  89  1   
 60  88  90  1   
 61  91  92  1   
 62  91  93  1   
 63  94  95  1   
 64  94  96  1   
 65  97  98  1   
 66  97  99  1   
 67 100 101  1   
 68 100 102  1   
 69 103 104  1   
 70 103 105  1   
 71 106 107  1   
 72 106 108  1   
 73 109 110  1   
 74 109 111  1   
 75 112 113  1   
 76 112 114  1   
 77 115 116  1   
 78 115 117  1   
 79 118 119  1   
 80 118 120  1   
 81 121 122  1   
 82 121 123  1   
 83 124 125  1   
 84 124 126  1   
 85 127 128  1   
 86 127 129  1   
 87 130 131  1   
 88 130 132  1   
 89 133 134  1   
 90 133 135  1   
 91 136 137  1   
 92 136 138  1   
 93 139 140  1   
 94 139 141  1   
 95 142 143  1   
 96 142 144  1   
 97 145 146  1   
 98 145 147  1   
 99 148 149  1   
100 148 150  1   
101 151 152  1   
102 151 153  1   
103 154 155  1   
104 154 156  1   
105 157 158  1   
106 157 159  1   
107 160 161  1   
108 160 162  1   
109 163 164  1   
110 163 165  1   
111 166 167  1   
112 166 168  1   
113 169 170  1   
114 169 171  1   
115 172 173  1   
116 172 174  1   
117 175 176  1   
118 175 177  1   
119 178 179  1   
120 178 180  1   
121 181 182  1   
122 181 183  1   
123 184 185  1   
124 184 186  1   
125 187 188  1   
126 187 189  1   
127 190 191  1   
128 190 192  1   
129 193 194  1   
130 193 195  1   
131 196 197  1   
132 196 198  1   
133 199 200  1   
134 199 201  1   
135 202 203  1   
136 202 204  1   
137 205 206  1   
138 205 207  1   
139 208 209  1   
140 208 210  1   
141 211 212  1   
142 211 213  1   
143 214 215  1   
144 214 216  1   
145 217 218  1   
146 217 219  1   
147 220 221  1   
148 220 222  1   
149 223 224  1   
150 223 225  1   
151 226 227  1   
152 226 228  1   
153 229 230  1   
154 229 231  1   
155 232 233  1   
156 232 234  1   
157 235 236  1   
158 235 237  1   
159 238 239  1   
160 238 240  1   
161 241 242  1   
162 241 243  1   
163 244 245  1   
164 244 246  1   
165 247 248  1   
166 247 249  1   
167 250 251  1   
168 250 252  1   
169 253 254  1   
170 253 255  1   
171 256 257  1   
172 256 258  1   
173 259 260  1   
174 259 261  1   
@<TRIPOS>SUBSTRUCTURE
  1 HOH   1 GROUP 4 B **** 0
  2 HOH   4 GROUP 4 B **** 0
  3 HOH   7 GROUP 4 B **** 0
  4 HOH  10 GROUP 4 B **** 0
  5 HOH  13 GROUP 4 B **** 0
  6 HOH  16 GROUP 4 B **** 0
  7 HOH  19 GROUP 4 B **** 0
  8 HOH  22 GROUP 4 B **** 0
  9 HOH  25 GROUP 4 B **** 0
 10 HOH  28 GROUP 4 B **** 0
 11 HOH  31 GROUP 4 B **** 0
 12 HOH  34 GROUP 4 B **** 0
 13 HOH  37 GROUP 4 B **** 0
 14 HOH  40 GROUP 4 B **** 0
 15 HOH  43 GROUP 4 B **** 0
 16 HOH  46 GROUP 4 B **** 0
 17 HOH  49 GROUP 4 B **** 0
 18 HOH  52 GROUP 4 B **** 0
 19 HOH  55 GROUP 4 B **** 0
 20 HOH  58 GROUP 4 B **** 0
 21 HOH  61 GROUP 4 B **** 0
 22 HOH  64 GROUP 4 B **** 0
 23 HOH  67 GROUP 4 B **** 0
 24 HOH  70 GROUP 4 B **** 0
 25 HOH  73 GROUP 4 B **** 0
 26 HOH  76 GROUP 4 B **** 0
 27 HOH  79 GROUP 4 B **** 0
 28 HOH  82 GROUP 4 B **** 0
 29 HOH  85 GROUP 4 B **** 0
 30 HOH  88 GROUP 4 B **** 0
 31 HOH  91 GROUP 4 B **** 0
 32 HOH  94 GROUP 4 B **** 0
 33 HOH  97 GROUP 4 B **** 0
 34 HOH 100 GROUP 4 B **** 0
 35 HOH 103 GROUP 4 B **** 0
 36 HOH 106 GROUP 4 B **** 0
 37 HOH 109 GROUP 4 B **** 0
 38 HOH 112 GROUP 4 B **** 0
 39 HOH 115 GROUP 4 B **** 0
 40 HOH 118 GROUP 4 B **** 0
 41 HOH 121 GROUP 4 B **** 0
 42 HOH 124 GROUP 4 B **** 0
 43 HOH 127 GROUP 4 B **** 0
 44 HOH 130 GROUP 4 B **** 0
 45 HOH 133 GROUP 4 B **** 0
 46 HOH 136 GROUP 4 B **** 0
 47 HOH 139 GROUP 4 B **** 0
 48 HOH 142 GROUP 4 B **** 0
 49 HOH 145 GROUP 4 B **** 0
 50 HOH 148 GROUP 4 B **** 0
 51 HOH 151 GROUP 4 B **** 0
 52 HOH 154 GROUP 4 B **** 0
 53 HOH 157 GROUP 4 B **** 0
 54 HOH 160 GROUP 4 B **** 0
 55 HOH 163 GROUP 4 B **** 0
 56 HOH 166 GROUP 4 B **** 0
 57 HOH 169 GROUP 4 B **** 0
 58 HOH 172 GROUP 4 B **** 0
 59 HOH 175 GROUP 4 B **** 0
 60 HOH 178 GROUP 4 B **** 0
 61 HOH 181 GROUP 4 B **** 0
 62 HOH 184 GROUP 4 B **** 0
 63 HOH 187 GROUP 4 B **** 0
 64 HOH 190 GROUP 4 B **** 0
 65 HOH 193 GROUP 4 B **** 0
 66 HOH 196 GROUP 4 B **** 0
 67 HOH 199 GROUP 4 B **** 0
 68 HOH 202 GROUP 4 B **** 0
 69 HOH 205 GROUP 4 B **** 0
 70 HOH 208 GROUP 4 B **** 0
 71 HOH 211 GROUP 4 B **** 0
 72 HOH 214 GROUP 4 B **** 0
 73 HOH 217 GROUP 4 B **** 0
 74 HOH 220 GROUP 4 B **** 0
 75 HOH 223 GROUP 4 B **** 0
 76 HOH 226 GROUP 4 B **** 0
 77 HOH 229 GROUP 4 B **** 0
 78 HOH 232 GROUP 4 B **** 0
 79 HOH 235 GROUP 4 B **** 0
 80 HOH 238 GROUP 4 B **** 0
 81 HOH 241 GROUP 4 B **** 0
 82 HOH 244 GROUP 4 B **** 0
 83 HOH 247 GROUP 4 B **** 0
 84 HOH 250 GROUP 4 B **** 0
 85 HOH 253 GROUP 4 B **** 0
 86 HOH 256 GROUP 4 B **** 0
 87 HOH 259 GROUP 4 B **** 0

# MOE 2012.10 (io_trps.svl 2012.10)
