@<TRIPOS>MOLECULE
2hz0.A
576 384 192 0 0 
SMALL
USER_CHARGES


@<TRIPOS>ATOM
  1 O      -13.6795     5.1667    22.7951 O.3     1 HOH   0.0000 
  2 H1     -12.7195     5.1667    22.7951 H       1 HOH   0.0000 
  3 H2     -13.9698     5.8137    23.4422 H       1 HOH   0.0000 
  4 O       -6.2065    13.3876    21.7820 O.3     2 HOH   0.0000 
  5 H1      -5.2465    13.3876    21.7820 H       2 HOH   0.0000 
  6 H2      -6.4968    14.0346    22.4291 H       2 HOH   0.0000 
  7 O       -8.8302     7.0518    22.4698 O.3     3 HOH   0.0000 
  8 H1      -7.8702     7.0518    22.4698 H       3 HOH   0.0000 
  9 H2      -9.1204     7.6989    23.1169 H       3 HOH   0.0000 
 10 O       -9.2133    -0.2772    35.0188 O.3     4 HOH   0.0000 
 11 H1      -8.2533    -0.2772    35.0188 H       4 HOH   0.0000 
 12 H2      -9.5036     0.3699    35.6658 H       4 HOH   0.0000 
 13 O       -3.3880    12.7616    26.7673 O.3     5 HOH   0.0000 
 14 H1      -2.4280    12.7616    26.7673 H       5 HOH   0.0000 
 15 H2      -3.6783    13.4086    27.4144 H       5 HOH   0.0000 
 16 O        7.1015    15.9517    28.3505 O.3     6 HOH   0.0000 
 17 H1       8.0615    15.9517    28.3505 H       6 HOH   0.0000 
 18 H2       6.8112    16.5988    28.9975 H       6 HOH   0.0000 
 19 O       -4.4422    17.3190    21.2779 O.3     7 HOH   0.0000 
 20 H1      -3.4822    17.3190    21.2779 H       7 HOH   0.0000 
 21 H2      -4.7325    17.9660    21.9250 H       7 HOH   0.0000 
 22 O       -0.5110    12.4228    37.7997 O.3     8 HOH   0.0000 
 23 H1       0.4490    12.4228    37.7997 H       8 HOH   0.0000 
 24 H2      -0.8013    13.0699    38.4468 H       8 HOH   0.0000 
 25 O       -3.6335     0.9728    18.0793 O.3     9 HOH   0.0000 
 26 H1      -2.6735     0.9728    18.0793 H       9 HOH   0.0000 
 27 H2      -3.9237     1.6199    18.7263 H       9 HOH   0.0000 
 28 O       -4.5426    -0.5279    16.1864 O.3    10 HOH   0.0000 
 29 H1      -3.5826    -0.5279    16.1864 H      10 HOH   0.0000 
 30 H2      -4.8329     0.1192    16.8334 H      10 HOH   0.0000 
 31 O       -4.9961    16.4823    24.7881 O.3    11 HOH   0.0000 
 32 H1      -4.0361    16.4823    24.7881 H      11 HOH   0.0000 
 33 H2      -5.2864    17.1294    25.4352 H      11 HOH   0.0000 
 34 O        0.1986    20.9525    27.8944 O.3    12 HOH  -0.8340 
 35 H1       0.1378    20.4829    27.0625 H      12 HOH   0.4170 
 36 H2       0.7155    20.3767    28.4578 H      12 HOH   0.4170 
 37 O      -14.2711    28.5707    22.8709 O.3    13 HOH   0.0000 
 38 H1     -13.3111    28.5707    22.8709 H      13 HOH   0.0000 
 39 H2     -14.5614    29.2177    23.5180 H      13 HOH   0.0000 
 40 O       -6.5475    16.7981    15.1243 O.3    14 HOH   0.0000 
 41 H1      -5.5875    16.7981    15.1243 H      14 HOH   0.0000 
 42 H2      -6.8378    17.4451    15.7714 H      14 HOH   0.0000 
 43 O       -6.9284    23.5587    16.2899 O.3    15 HOH   0.0000 
 44 H1      -5.9684    23.5587    16.2899 H      15 HOH   0.0000 
 45 H2      -7.2187    24.2058    16.9369 H      15 HOH   0.0000 
 46 O        2.6724    17.7862    15.3482 O.3    16 HOH   0.0000 
 47 H1       3.6324    17.7862    15.3482 H      16 HOH   0.0000 
 48 H2       2.3821    18.4332    15.9953 H      16 HOH   0.0000 
 49 O       -7.3660     6.1466    33.7349 O.3    17 HOH   0.0000 
 50 H1      -6.4060     6.1466    33.7349 H      17 HOH   0.0000 
 51 H2      -7.6563     6.7936    34.3820 H      17 HOH   0.0000 
 52 O        6.3239    23.8957    25.8586 O.3    18 HOH   0.0000 
 53 H1       7.2839    23.8957    25.8586 H      18 HOH   0.0000 
 54 H2       6.0336    24.5428    26.5056 H      18 HOH   0.0000 
 55 O       -5.0794     9.7597    33.3324 O.3    19 HOH   0.0000 
 56 H1      -4.1194     9.7597    33.3324 H      19 HOH   0.0000 
 57 H2      -5.3697    10.4067    33.9794 H      19 HOH   0.0000 
 58 O       -1.9992     4.6935    26.3820 O.3    20 HOH   0.0000 
 59 H1      -1.0392     4.6935    26.3820 H      20 HOH   0.0000 
 60 H2      -2.2895     5.3406    27.0290 H      20 HOH   0.0000 
 61 O        7.7383    20.1631    24.5152 O.3    21 HOH   0.0000 
 62 H1       8.6983    20.1631    24.5152 H      21 HOH   0.0000 
 63 H2       7.4480    20.8102    25.1623 H      21 HOH   0.0000 
 64 O      -17.7981    26.6475    18.5835 O.3    22 HOH   0.0000 
 65 H1     -16.8381    26.6475    18.5835 H      22 HOH   0.0000 
 66 H2     -18.0884    27.2945    19.2305 H      22 HOH   0.0000 
 67 O      -17.1967     8.6977    14.0841 O.3    23 HOH   0.0000 
 68 H1     -16.2367     8.6977    14.0841 H      23 HOH   0.0000 
 69 H2     -17.4869     9.3448    14.7311 H      23 HOH   0.0000 
 70 O       -7.5705    33.6740    16.4786 O.3    24 HOH   0.0000 
 71 H1      -6.6105    33.6740    16.4786 H      24 HOH   0.0000 
 72 H2      -7.8608    34.3211    17.1256 H      24 HOH   0.0000 
 73 O       -6.7767     6.6585    20.7333 O.3    25 HOH   0.0000 
 74 H1      -5.8167     6.6585    20.7333 H      25 HOH   0.0000 
 75 H2      -7.0670     7.3055    21.3804 H      25 HOH   0.0000 
 76 O       -9.5828    -1.2273    32.8931 O.3    26 HOH   0.0000 
 77 H1      -8.6228    -1.2273    32.8931 H      26 HOH   0.0000 
 78 H2      -9.8731    -0.5803    33.5401 H      26 HOH   0.0000 
 79 O      -15.6367     0.0185    27.2605 O.3    27 HOH   0.0000 
 80 H1     -14.6767     0.0185    27.2605 H      27 HOH   0.0000 
 81 H2     -15.9270     0.6656    27.9076 H      27 HOH   0.0000 
 82 O      -15.2317    27.4028    19.3434 O.3    28 HOH   0.0000 
 83 H1     -14.2717    27.4028    19.3434 H      28 HOH   0.0000 
 84 H2     -15.5219    28.0498    19.9904 H      28 HOH   0.0000 
 85 O      -29.1342    11.8618    30.0790 O.3    29 HOH   0.0000 
 86 H1     -28.1742    11.8618    30.0790 H      29 HOH   0.0000 
 87 H2     -29.4245    12.5089    30.7261 H      29 HOH   0.0000 
 88 O       -2.4437    31.0178    20.2282 O.3    30 HOH   0.0000 
 89 H1      -1.4837    31.0178    20.2282 H      30 HOH   0.0000 
 90 H2      -2.7340    31.6648    20.8752 H      30 HOH   0.0000 
 91 O       -4.6983     5.3933    33.4960 O.3    31 HOH   0.0000 
 92 H1      -3.7383     5.3933    33.4960 H      31 HOH   0.0000 
 93 H2      -4.9886     6.0404    34.1430 H      31 HOH   0.0000 
 94 O      -11.5695    18.1087    47.6511 O.3    32 HOH   0.0000 
 95 H1     -10.6095    18.1087    47.6511 H      32 HOH   0.0000 
 96 H2     -11.8597    18.7557    48.2982 H      32 HOH   0.0000 
 97 O       10.0530     8.5174    21.5510 O.3    33 HOH   0.0000 
 98 H1      11.0130     8.5174    21.5510 H      33 HOH   0.0000 
 99 H2       9.7627     9.1645    22.1981 H      33 HOH   0.0000 
100 O       -9.3403    10.7369    12.7023 O.3    34 HOH   0.0000 
101 H1      -8.3803    10.7369    12.7023 H      34 HOH   0.0000 
102 H2      -9.6306    11.3839    13.3494 H      34 HOH   0.0000 
103 O      -15.3219     5.7010    13.4442 O.3    35 HOH   0.0000 
104 H1     -14.3619     5.7010    13.4442 H      35 HOH   0.0000 
105 H2     -15.6122     6.3480    14.0913 H      35 HOH   0.0000 
106 O       -0.7678    -4.4288    22.0925 O.3    36 HOH   0.0000 
107 H1       0.1922    -4.4288    22.0925 H      36 HOH   0.0000 
108 H2      -1.0580    -3.7817    22.7395 H      36 HOH   0.0000 
109 O      -18.9727    26.3037    34.3787 O.3    37 HOH   0.0000 
110 H1     -18.0127    26.3037    34.3787 H      37 HOH   0.0000 
111 H2     -19.2629    26.9508    35.0257 H      37 HOH   0.0000 
112 O      -18.2210     8.0026    18.9768 O.3    38 HOH   0.0000 
113 H1     -17.2610     8.0026    18.9768 H      38 HOH   0.0000 
114 H2     -18.5113     8.6496    19.6238 H      38 HOH   0.0000 
115 O        9.4417    32.5283    28.7573 O.3    39 HOH   0.0000 
116 H1      10.4017    32.5283    28.7573 H      39 HOH   0.0000 
117 H2       9.1514    33.1754    29.4044 H      39 HOH   0.0000 
118 O      -18.2435     7.3884    16.2059 O.3    40 HOH   0.0000 
119 H1     -17.2835     7.3884    16.2059 H      40 HOH   0.0000 
120 H2     -18.5338     8.0355    16.8529 H      40 HOH   0.0000 
121 O      -23.1456    11.7107    20.3997 O.3    41 HOH   0.0000 
122 H1     -22.1856    11.7107    20.3997 H      41 HOH   0.0000 
123 H2     -23.4359    12.3577    21.0468 H      41 HOH   0.0000 
124 O      -14.5005    29.7693    29.6500 O.3    42 HOH   0.0000 
125 H1     -13.5405    29.7693    29.6500 H      42 HOH   0.0000 
126 H2     -14.7908    30.4163    30.2970 H      42 HOH   0.0000 
127 O        7.1988    26.7891    17.0757 O.3    43 HOH   0.0000 
128 H1       8.1588    26.7891    17.0757 H      43 HOH   0.0000 
129 H2       6.9085    27.4362    17.7228 H      43 HOH   0.0000 
130 O      -22.8375     2.1859    25.3024 O.3    44 HOH   0.0000 
131 H1     -21.8775     2.1859    25.3024 H      44 HOH   0.0000 
132 H2     -23.1278     2.8329    25.9495 H      44 HOH   0.0000 
133 O        1.5002    12.2683    35.9981 O.3    45 HOH   0.0000 
134 H1       2.4602    12.2683    35.9981 H      45 HOH   0.0000 
135 H2       1.2100    12.9154    36.6452 H      45 HOH   0.0000 
136 O      -14.9755    25.3962    52.5607 O.3    46 HOH   0.0000 
137 H1     -14.0155    25.3962    52.5607 H      46 HOH   0.0000 
138 H2     -15.2658    26.0432    53.2078 H      46 HOH   0.0000 
139 O        0.0971    18.6922    14.4786 O.3    47 HOH   0.0000 
140 H1       1.0571    18.6922    14.4786 H      47 HOH   0.0000 
141 H2      -0.1932    19.3392    15.1257 H      47 HOH   0.0000 
142 O       -3.0408     7.5305    33.2079 O.3    48 HOH   0.0000 
143 H1      -2.0808     7.5305    33.2079 H      48 HOH   0.0000 
144 H2      -3.3311     8.1775    33.8549 H      48 HOH   0.0000 
145 O       -0.4002    18.5004    44.7325 O.3    49 HOH  -0.8340 
146 H1      -0.0979    19.4035    44.6358 H      49 HOH   0.4170 
147 H2      -1.1515    18.5608    45.3225 H      49 HOH   0.4170 
148 O       -2.4548     4.2522    35.9190 O.3    50 HOH   0.0000 
149 H1      -1.4948     4.2522    35.9190 H      50 HOH   0.0000 
150 H2      -2.7451     4.8993    36.5661 H      50 HOH   0.0000 
151 O       -5.4664    30.3904    35.8437 O.3    51 HOH   0.0000 
152 H1      -4.5064    30.3904    35.8437 H      51 HOH   0.0000 
153 H2      -5.7567    31.0374    36.4907 H      51 HOH   0.0000 
154 O      -15.2274    -6.3822    13.7509 O.3    52 HOH   0.0000 
155 H1     -14.2674    -6.3822    13.7509 H      52 HOH   0.0000 
156 H2     -15.5177    -5.7352    14.3979 H      52 HOH   0.0000 
157 O       -2.4909    31.4178    34.9280 O.3    53 HOH   0.0000 
158 H1      -1.5309    31.4178    34.9280 H      53 HOH   0.0000 
159 H2      -2.7812    32.0649    35.5750 H      53 HOH   0.0000 
160 O       -3.4923    26.4528    18.3479 O.3    54 HOH   0.0000 
161 H1      -2.5323    26.4528    18.3479 H      54 HOH   0.0000 
162 H2      -3.7826    27.0998    18.9949 H      54 HOH   0.0000 
163 O       -7.6097    22.8477    23.4375 O.3    55 HOH   0.0000 
164 H1      -6.6497    22.8477    23.4375 H      55 HOH   0.0000 
165 H2      -7.9000    23.4948    24.0846 H      55 HOH   0.0000 
166 O        0.9655    33.2887    23.0721 O.3    56 HOH   0.0000 
167 H1       1.9255    33.2887    23.0721 H      56 HOH   0.0000 
168 H2       0.6753    33.9358    23.7192 H      56 HOH   0.0000 
169 O        1.1690    13.4841    33.7452 O.3    57 HOH   0.0000 
170 H1       2.1290    13.4841    33.7452 H      57 HOH   0.0000 
171 H2       0.8788    14.1311    34.3922 H      57 HOH   0.0000 
172 O       13.6769    16.7686    32.4780 O.3    58 HOH   0.0000 
173 H1      14.6369    16.7686    32.4780 H      58 HOH   0.0000 
174 H2      13.3867    17.4157    33.1250 H      58 HOH   0.0000 
175 O      -19.4864    13.3048    34.2312 O.3    59 HOH   0.0000 
176 H1     -18.5264    13.3048    34.2312 H      59 HOH   0.0000 
177 H2     -19.7767    13.9518    34.8782 H      59 HOH   0.0000 
178 O        8.1632    34.4073    28.8833 O.3    60 HOH   0.0000 
179 H1       9.1232    34.4073    28.8833 H      60 HOH   0.0000 
180 H2       7.8729    35.0544    29.5303 H      60 HOH   0.0000 
181 O       -2.7553    12.6781    24.1230 O.3    61 HOH   0.0000 
182 H1      -1.7953    12.6781    24.1230 H      61 HOH   0.0000 
183 H2      -3.0455    13.3251    24.7700 H      61 HOH   0.0000 
184 O      -32.9391    20.9655    29.7684 O.3    62 HOH   0.0000 
185 H1     -31.9791    20.9655    29.7684 H      62 HOH   0.0000 
186 H2     -33.2293    21.6125    30.4155 H      62 HOH   0.0000 
187 O      -23.2025     7.3074    55.1596 O.3    63 HOH   0.0000 
188 H1     -22.2425     7.3074    55.1596 H      63 HOH   0.0000 
189 H2     -23.4928     7.9545    55.8066 H      63 HOH   0.0000 
190 O        0.9060    32.0696    13.3506 O.3    64 HOH   0.0000 
191 H1       1.8660    32.0696    13.3506 H      64 HOH   0.0000 
192 H2       0.6157    32.7167    13.9976 H      64 HOH   0.0000 
193 O      -19.5083    10.6371    54.4081 O.3    65 HOH   0.0000 
194 H1     -18.5483    10.6371    54.4081 H      65 HOH   0.0000 
195 H2     -19.7986    11.2841    55.0551 H      65 HOH   0.0000 
196 O      -25.9606    15.3009    24.7339 O.3    66 HOH   0.0000 
197 H1     -25.0006    15.3009    24.7339 H      66 HOH   0.0000 
198 H2     -26.2509    15.9480    25.3809 H      66 HOH   0.0000 
199 O        2.7854    15.9410    29.5809 O.3    67 HOH   0.0000 
200 H1       3.7454    15.9410    29.5809 H      67 HOH   0.0000 
201 H2       2.4951    16.5881    30.2279 H      67 HOH   0.0000 
202 O        1.7010    18.0635    27.0221 O.3    68 HOH  -0.8340 
203 H1       0.8358    18.2537    26.6595 H      68 HOH   0.4170 
204 H2       1.6299    18.2968    27.9477 H      68 HOH   0.4170 
205 O       -1.7836     2.6145    27.9322 O.3    69 HOH   0.0000 
206 H1      -0.8236     2.6145    27.9322 H      69 HOH   0.0000 
207 H2      -2.0739     3.2615    28.5792 H      69 HOH   0.0000 
208 O       -7.4713    18.0845    12.6402 O.3    70 HOH   0.0000 
209 H1      -6.5113    18.0845    12.6402 H      70 HOH   0.0000 
210 H2      -7.7616    18.7316    13.2873 H      70 HOH   0.0000 
211 O      -10.4368    28.3579    41.5163 O.3    71 HOH   0.0000 
212 H1      -9.4768    28.3579    41.5163 H      71 HOH   0.0000 
213 H2     -10.7271    29.0050    42.1634 H      71 HOH   0.0000 
214 O      -16.2834    23.1280    15.3718 O.3    72 HOH   0.0000 
215 H1     -15.3234    23.1280    15.3718 H      72 HOH   0.0000 
216 H2     -16.5737    23.7750    16.0189 H      72 HOH   0.0000 
217 O      -25.9417     7.6626    38.2323 O.3    73 HOH   0.0000 
218 H1     -24.9817     7.6626    38.2323 H      73 HOH   0.0000 
219 H2     -26.2320     8.3096    38.8794 H      73 HOH   0.0000 
220 O      -24.4041    14.6501    48.2378 O.3    74 HOH   0.0000 
221 H1     -23.4441    14.6501    48.2378 H      74 HOH   0.0000 
222 H2     -24.6944    15.2971    48.8849 H      74 HOH   0.0000 
223 O       -8.8969    21.9781    15.6621 O.3    75 HOH   0.0000 
224 H1      -7.9369    21.9781    15.6621 H      75 HOH   0.0000 
225 H2      -9.1872    22.6252    16.3091 H      75 HOH   0.0000 
226 O      -21.3076    15.7362    47.7872 O.3    76 HOH   0.0000 
227 H1     -20.3476    15.7362    47.7872 H      76 HOH   0.0000 
228 H2     -21.5979    16.3832    48.4342 H      76 HOH   0.0000 
229 O       -3.5694    32.5324    17.6463 O.3    77 HOH   0.0000 
230 H1      -2.6094    32.5324    17.6463 H      77 HOH   0.0000 
231 H2      -3.8597    33.1795    18.2933 H      77 HOH   0.0000 
232 O       -1.3540     7.1359    34.7817 O.3    78 HOH   0.0000 
233 H1      -0.3940     7.1359    34.7817 H      78 HOH   0.0000 
234 H2      -1.6443     7.7830    35.4288 H      78 HOH   0.0000 
235 O      -16.9724    11.5960    12.1830 O.3    79 HOH   0.0000 
236 H1     -16.0124    11.5960    12.1830 H      79 HOH   0.0000 
237 H2     -17.2627    12.2430    12.8301 H      79 HOH   0.0000 
238 O        4.9545    14.5667    29.2308 O.3    80 HOH   0.0000 
239 H1       5.9145    14.5667    29.2308 H      80 HOH   0.0000 
240 H2       4.6642    15.2137    29.8779 H      80 HOH   0.0000 
241 O       -6.9530    29.2646    38.9031 O.3    81 HOH   0.0000 
242 H1      -5.9930    29.2646    38.9031 H      81 HOH   0.0000 
243 H2      -7.2433    29.9116    39.5502 H      81 HOH   0.0000 
244 O       -4.1813    14.8750    22.7199 O.3    82 HOH   0.0000 
245 H1      -3.2213    14.8750    22.7199 H      82 HOH   0.0000 
246 H2      -4.4716    15.5220    23.3669 H      82 HOH   0.0000 
247 O      -25.7677     3.4931    26.0336 O.3    83 HOH   0.0000 
248 H1     -24.8077     3.4931    26.0336 H      83 HOH   0.0000 
249 H2     -26.0579     4.1402    26.6807 H      83 HOH   0.0000 
250 O      -21.5738    10.7039    53.4138 O.3    84 HOH   0.0000 
251 H1     -20.6138    10.7039    53.4138 H      84 HOH   0.0000 
252 H2     -21.8640    11.3510    54.0608 H      84 HOH   0.0000 
253 O       13.4755    23.1232    23.3143 O.3    85 HOH   0.0000 
254 H1      14.4355    23.1232    23.3143 H      85 HOH   0.0000 
255 H2      13.1853    23.7703    23.9613 H      85 HOH   0.0000 
256 O      -19.4958     8.3674    53.8829 O.3    86 HOH   0.0000 
257 H1     -18.5358     8.3674    53.8829 H      86 HOH   0.0000 
258 H2     -19.7861     9.0145    54.5299 H      86 HOH   0.0000 
259 O      -12.0021    19.6845    50.6991 O.3    87 HOH   0.0000 
260 H1     -11.0421    19.6845    50.6991 H      87 HOH   0.0000 
261 H2     -12.2923    20.3316    51.3461 H      87 HOH   0.0000 
262 O       -4.5539    12.8290    44.4019 O.3    88 HOH   0.0000 
263 H1      -3.5939    12.8290    44.4019 H      88 HOH   0.0000 
264 H2      -4.8441    13.4760    45.0489 H      88 HOH   0.0000 
265 O       -5.6438    10.8303    46.5994 O.3    89 HOH   0.0000 
266 H1      -4.6838    10.8303    46.5994 H      89 HOH   0.0000 
267 H2      -5.9341    11.4773    47.2464 H      89 HOH   0.0000 
268 O      -20.6795    16.5598    17.3827 O.3    90 HOH   0.0000 
269 H1     -19.7195    16.5598    17.3827 H      90 HOH   0.0000 
270 H2     -20.9698    17.2069    18.0297 H      90 HOH   0.0000 
271 O       -1.9522    11.7055    44.8303 O.3    91 HOH   0.0000 
272 H1      -0.9922    11.7055    44.8303 H      91 HOH   0.0000 
273 H2      -2.2425    12.3526    45.4774 H      91 HOH   0.0000 
274 O      -15.1843     5.4558    10.9336 O.3    92 HOH   0.0000 
275 H1     -14.2243     5.4558    10.9336 H      92 HOH   0.0000 
276 H2     -15.4746     6.1029    11.5807 H      92 HOH   0.0000 
277 O       16.1744    23.8853    23.6446 O.3    93 HOH   0.0000 
278 H1      17.1344    23.8853    23.6446 H      93 HOH   0.0000 
279 H2      15.8842    24.5323    24.2916 H      93 HOH   0.0000 
280 O      -18.4008    18.9330    10.7394 O.3    94 HOH   0.0000 
281 H1     -17.4408    18.9330    10.7394 H      94 HOH   0.0000 
282 H2     -18.6910    19.5800    11.3865 H      94 HOH   0.0000 
283 O      -13.1720    23.4314    18.6196 O.3    95 HOH   0.0000 
284 H1     -12.2120    23.4314    18.6196 H      95 HOH   0.0000 
285 H2     -13.4623    24.0784    19.2666 H      95 HOH   0.0000 
286 O       -9.4683    -1.0564    11.0813 O.3    96 HOH   0.0000 
287 H1      -8.5083    -1.0564    11.0813 H      96 HOH   0.0000 
288 H2      -9.7586    -0.4093    11.7284 H      96 HOH   0.0000 
289 O       12.2527    23.4342    20.9201 O.3    97 HOH   0.0000 
290 H1      13.2127    23.4342    20.9201 H      97 HOH   0.0000 
291 H2      11.9624    24.0812    21.5671 H      97 HOH   0.0000 
292 O       -7.5070    -3.0284    32.0787 O.3    98 HOH   0.0000 
293 H1      -6.5470    -3.0284    32.0787 H      98 HOH   0.0000 
294 H2      -7.7973    -2.3814    32.7257 H      98 HOH   0.0000 
295 O       -1.4070    33.9597    34.1089 O.3    99 HOH   0.0000 
296 H1      -0.4470    33.9597    34.1089 H      99 HOH   0.0000 
297 H2      -1.6972    34.6068    34.7560 H      99 HOH   0.0000 
298 O      -17.9376    11.8652    33.3136 O.3   100 HOH   0.0000 
299 H1     -16.9776    11.8652    33.3136 H     100 HOH   0.0000 
300 H2     -18.2278    12.5122    33.9606 H     100 HOH   0.0000 
301 O      -12.2428    24.9186    46.8185 O.3   101 HOH   0.0000 
302 H1     -11.2828    24.9186    46.8185 H     101 HOH   0.0000 
303 H2     -12.5330    25.5656    47.4656 H     101 HOH   0.0000 
304 O        2.5292     7.3644    13.1314 O.3   102 HOH   0.0000 
305 H1       3.4892     7.3644    13.1314 H     102 HOH   0.0000 
306 H2       2.2389     8.0114    13.7784 H     102 HOH   0.0000 
307 O       -0.1770    27.4300    46.6785 O.3   103 HOH   0.0000 
308 H1       0.7830    27.4300    46.6785 H     103 HOH   0.0000 
309 H2      -0.4673    28.0771    47.3256 H     103 HOH   0.0000 
310 O      -24.5651     3.8018    19.1891 O.3   104 HOH   0.0000 
311 H1     -23.6051     3.8018    19.1891 H     104 HOH   0.0000 
312 H2     -24.8554     4.4488    19.8362 H     104 HOH   0.0000 
313 O      -15.1344    19.0390    51.0548 O.3   105 HOH   0.0000 
314 H1     -14.1744    19.0390    51.0548 H     105 HOH   0.0000 
315 H2     -15.4247    19.6861    51.7018 H     105 HOH   0.0000 
316 O      -23.4850    15.4769    45.9789 O.3   106 HOH   0.0000 
317 H1     -22.5250    15.4769    45.9789 H     106 HOH   0.0000 
318 H2     -23.7753    16.1239    46.6259 H     106 HOH   0.0000 
319 O       10.1859    29.1757    23.4076 O.3   107 HOH   0.0000 
320 H1      11.1459    29.1757    23.4076 H     107 HOH   0.0000 
321 H2       9.8956    29.8228    24.0547 H     107 HOH   0.0000 
322 O        0.6302     4.5272    25.1079 O.3   108 HOH   0.0000 
323 H1       1.5902     4.5272    25.1079 H     108 HOH   0.0000 
324 H2       0.3399     5.1742    25.7549 H     108 HOH   0.0000 
325 O      -21.1734     7.9237    17.4950 O.3   109 HOH   0.0000 
326 H1     -20.2134     7.9237    17.4950 H     109 HOH   0.0000 
327 H2     -21.4636     8.5708    18.1420 H     109 HOH   0.0000 
328 O      -11.5698    33.4750    32.8401 O.3   110 HOH   0.0000 
329 H1     -10.6098    33.4750    32.8401 H     110 HOH   0.0000 
330 H2     -11.8600    34.1220    33.4871 H     110 HOH   0.0000 
331 O       -5.9640    12.8418    47.8669 O.3   111 HOH   0.0000 
332 H1      -5.0040    12.8418    47.8669 H     111 HOH   0.0000 
333 H2      -6.2542    13.4888    48.5140 H     111 HOH   0.0000 
334 O       -8.8029    25.2048    46.9371 O.3   112 HOH   0.0000 
335 H1      -7.8429    25.2048    46.9371 H     112 HOH   0.0000 
336 H2      -9.0932    25.8518    47.5841 H     112 HOH   0.0000 
337 O        3.6912     6.8025    15.2968 O.3   113 HOH   0.0000 
338 H1       4.6512     6.8025    15.2968 H     113 HOH   0.0000 
339 H2       3.4009     7.4496    15.9438 H     113 HOH   0.0000 
340 O      -11.4766    -1.2044     8.8116 O.3   114 HOH   0.0000 
341 H1     -10.5166    -1.2044     8.8116 H     114 HOH   0.0000 
342 H2     -11.7668    -0.5574     9.4586 H     114 HOH   0.0000 
343 O       10.1681    20.6990    17.5091 O.3   115 HOH   0.0000 
344 H1      11.1281    20.6990    17.5091 H     115 HOH   0.0000 
345 H2       9.8778    21.3460    18.1562 H     115 HOH   0.0000 
346 O       -7.6463    -5.9301    31.1586 O.3   116 HOH   0.0000 
347 H1      -6.6863    -5.9301    31.1586 H     116 HOH   0.0000 
348 H2      -7.9366    -5.2831    31.8057 H     116 HOH   0.0000 
349 O      -14.4875    13.1727    49.8393 O.3   117 HOH   0.0000 
350 H1     -13.5275    13.1727    49.8393 H     117 HOH   0.0000 
351 H2     -14.7778    13.8197    50.4863 H     117 HOH   0.0000 
352 O       10.7364    13.2350    34.1801 O.3   118 HOH   0.0000 
353 H1      11.6964    13.2350    34.1801 H     118 HOH   0.0000 
354 H2      10.4461    13.8821    34.8271 H     118 HOH   0.0000 
355 O       -7.4637    27.8341    43.8024 O.3   119 HOH   0.0000 
356 H1      -6.5037    27.8341    43.8024 H     119 HOH   0.0000 
357 H2      -7.7540    28.4812    44.4494 H     119 HOH   0.0000 
358 O       -6.8067     5.3148     9.1579 O.3   120 HOH   0.0000 
359 H1      -5.8467     5.3148     9.1579 H     120 HOH   0.0000 
360 H2      -7.0970     5.9618     9.8049 H     120 HOH   0.0000 
361 O      -14.7140     9.1066     8.1796 O.3   121 HOH   0.0000 
362 H1     -13.7540     9.1066     8.1796 H     121 HOH   0.0000 
363 H2     -15.0043     9.7536     8.8266 H     121 HOH   0.0000 
364 O       -3.6021    -6.4849    17.3920 O.3   122 HOH   0.0000 
365 H1      -2.6421    -6.4849    17.3920 H     122 HOH   0.0000 
366 H2      -3.8924    -5.8378    18.0391 H     122 HOH   0.0000 
367 O       13.4496    11.2573    24.4573 O.3   123 HOH   0.0000 
368 H1      14.4096    11.2573    24.4573 H     123 HOH   0.0000 
369 H2      13.1593    11.9044    25.1044 H     123 HOH   0.0000 
370 O      -10.1287     1.9733    42.6917 O.3   124 HOH   0.0000 
371 H1      -9.1687     1.9733    42.6917 H     124 HOH   0.0000 
372 H2     -10.4190     2.6203    43.3387 H     124 HOH   0.0000 
373 O       -5.5217    23.7027    46.7310 O.3   125 HOH   0.0000 
374 H1      -4.5617    23.7027    46.7310 H     125 HOH   0.0000 
375 H2      -5.8119    24.3497    47.3781 H     125 HOH   0.0000 
376 O      -12.1669     3.4193    46.0866 O.3   126 HOH   0.0000 
377 H1     -11.2069     3.4193    46.0866 H     126 HOH   0.0000 
378 H2     -12.4572     4.0664    46.7337 H     126 HOH   0.0000 
379 O       -2.9321    22.4317    15.1043 O.3   127 HOH   0.0000 
380 H1      -1.9721    22.4317    15.1043 H     127 HOH   0.0000 
381 H2      -3.2224    23.0787    15.7513 H     127 HOH   0.0000 
382 O      -16.5168    -4.4346    12.2307 O.3   128 HOH   0.0000 
383 H1     -15.5568    -4.4346    12.2307 H     128 HOH   0.0000 
384 H2     -16.8071    -3.7875    12.8778 H     128 HOH   0.0000 
385 O      -17.9822    32.6021    25.1327 O.3   129 HOH   0.0000 
386 H1     -17.0222    32.6021    25.1327 H     129 HOH   0.0000 
387 H2     -18.2724    33.2492    25.7798 H     129 HOH   0.0000 
388 O        2.1840     8.2683    17.3415 O.3   130 HOH   0.0000 
389 H1       3.1440     8.2683    17.3415 H     130 HOH   0.0000 
390 H2       1.8937     8.9154    17.9885 H     130 HOH   0.0000 
391 O        3.3161    12.4446    16.7427 O.3   131 HOH   0.0000 
392 H1       4.2761    12.4446    16.7427 H     131 HOH   0.0000 
393 H2       3.0258    13.0916    17.3898 H     131 HOH   0.0000 
394 O       -7.0326     9.2278    11.3062 O.3   132 HOH   0.0000 
395 H1      -6.0726     9.2278    11.3062 H     132 HOH   0.0000 
396 H2      -7.3229     9.8748    11.9532 H     132 HOH   0.0000 
397 O        4.7716    18.1086    17.2716 O.3   133 HOH   0.0000 
398 H1       5.7316    18.1086    17.2716 H     133 HOH   0.0000 
399 H2       4.4813    18.7557    17.9186 H     133 HOH   0.0000 
400 O       -8.7188    17.3615     9.8755 O.3   134 HOH   0.0000 
401 H1      -7.7588    17.3615     9.8755 H     134 HOH   0.0000 
402 H2      -9.0090    18.0085    10.5225 H     134 HOH   0.0000 
403 O        9.3759    15.8782    19.2160 O.3   135 HOH   0.0000 
404 H1      10.3359    15.8782    19.2160 H     135 HOH   0.0000 
405 H2       9.0856    16.5252    19.8631 H     135 HOH   0.0000 
406 O       -8.4844    -6.7756    17.1317 O.3   136 HOH   0.0000 
407 H1      -7.5244    -6.7756    17.1317 H     136 HOH   0.0000 
408 H2      -8.7747    -6.1285    17.7787 H     136 HOH   0.0000 
409 O        9.5278    31.2250    24.5020 O.3   137 HOH   0.0000 
410 H1      10.4878    31.2250    24.5020 H     137 HOH   0.0000 
411 H2       9.2375    31.8721    25.1491 H     137 HOH   0.0000 
412 O      -16.9043     1.3430    39.1223 O.3   138 HOH   0.0000 
413 H1     -15.9443     1.3430    39.1223 H     138 HOH   0.0000 
414 H2     -17.1946     1.9901    39.7693 H     138 HOH   0.0000 
415 O       -8.7043    -8.5918    23.2451 O.3   139 HOH   0.0000 
416 H1      -7.7443    -8.5918    23.2451 H     139 HOH   0.0000 
417 H2      -8.9946    -7.9448    23.8921 H     139 HOH   0.0000 
418 O      -11.9413    17.3049     9.7750 O.3   140 HOH   0.0000 
419 H1     -10.9813    17.3049     9.7750 H     140 HOH   0.0000 
420 H2     -12.2316    17.9520    10.4221 H     140 HOH   0.0000 
421 O      -10.7981    28.6269    44.5393 O.3   141 HOH   0.0000 
422 H1      -9.8381    28.6269    44.5393 H     141 HOH   0.0000 
423 H2     -11.0884    29.2740    45.1864 H     141 HOH   0.0000 
424 O      -19.5159    29.7013    28.4560 O.3   142 HOH   0.0000 
425 H1     -18.5559    29.7013    28.4560 H     142 HOH   0.0000 
426 H2     -19.8062    30.3484    29.1030 H     142 HOH   0.0000 
427 O       -6.7580     7.4613     7.6612 O.3   143 HOH   0.0000 
428 H1      -5.7980     7.4613     7.6612 H     143 HOH   0.0000 
429 H2      -7.0483     8.1084     8.3083 H     143 HOH   0.0000 
430 O      -20.1328    -0.6789    30.5596 O.3   144 HOH   0.0000 
431 H1     -19.1728    -0.6789    30.5596 H     144 HOH   0.0000 
432 H2     -20.4230    -0.0319    31.2066 H     144 HOH   0.0000 
433 O       -8.9800    10.2265    47.2008 O.3   145 HOH   0.0000 
434 H1      -8.0200    10.2265    47.2008 H     145 HOH   0.0000 
435 H2      -9.2702    10.8736    47.8478 H     145 HOH   0.0000 
436 O        1.7512    12.0256    28.0880 O.3   146 HOH   0.0000 
437 H1       2.7112    12.0256    28.0880 H     146 HOH   0.0000 
438 H2       1.4609    12.6727    28.7350 H     146 HOH   0.0000 
439 O      -21.7974    12.2278    35.8196 O.3   147 HOH   0.0000 
440 H1     -20.8374    12.2278    35.8196 H     147 HOH   0.0000 
441 H2     -22.0877    12.8748    36.4666 H     147 HOH   0.0000 
442 O       -9.6398    27.8924    18.8727 O.3   148 HOH   0.0000 
443 H1      -8.6798    27.8924    18.8727 H     148 HOH   0.0000 
444 H2      -9.9301    28.5394    19.5197 H     148 HOH   0.0000 
445 O        1.5877    11.0113    17.7190 O.3   149 HOH   0.0000 
446 H1       2.5477    11.0113    17.7190 H     149 HOH   0.0000 
447 H2       1.2974    11.6584    18.3660 H     149 HOH   0.0000 
448 O       15.3552    13.4054    51.6814 O.3   150 HOH   0.0000 
449 H1      16.3152    13.4054    51.6814 H     150 HOH   0.0000 
450 H2      15.0649    14.0524    52.3284 H     150 HOH   0.0000 
451 O       17.2728    24.7233    32.9924 O.3   151 HOH   0.0000 
452 H1      18.2328    24.7233    32.9924 H     151 HOH   0.0000 
453 H2      16.9825    25.3704    33.6395 H     151 HOH   0.0000 
454 O        1.9326    31.7308    21.2877 O.3   152 HOH   0.0000 
455 H1       2.8926    31.7308    21.2877 H     152 HOH   0.0000 
456 H2       1.6423    32.3779    21.9348 H     152 HOH   0.0000 
457 O        8.5358    26.9912    19.2466 O.3   153 HOH   0.0000 
458 H1       9.4958    26.9912    19.2466 H     153 HOH   0.0000 
459 H2       8.2456    27.6382    19.8936 H     153 HOH   0.0000 
460 O      -22.2173     7.5311    44.5855 O.3   154 HOH   0.0000 
461 H1     -21.2573     7.5311    44.5855 H     154 HOH   0.0000 
462 H2     -22.5075     8.1781    45.2326 H     154 HOH   0.0000 
463 O        2.9920    33.0378    13.9723 O.3   155 HOH   0.0000 
464 H1       3.9520    33.0378    13.9723 H     155 HOH   0.0000 
465 H2       2.7017    33.6848    14.6194 H     155 HOH   0.0000 
466 O        5.7907    13.1998    18.8347 O.3   156 HOH   0.0000 
467 H1       6.7507    13.1998    18.8347 H     156 HOH   0.0000 
468 H2       5.5004    13.8469    19.4817 H     156 HOH   0.0000 
469 O        3.6932    12.2836    37.0745 O.3   157 HOH   0.0000 
470 H1       4.6532    12.2836    37.0745 H     157 HOH   0.0000 
471 H2       3.4029    12.9307    37.7215 H     157 HOH   0.0000 
472 O       -2.4516    27.8657    33.9026 O.3   158 HOH  -0.8340 
473 H1      -2.5596    27.7660    34.8484 H     158 HOH   0.4170 
474 H2      -2.6151    28.7946    33.7390 H     158 HOH   0.4170 
475 O      -18.1550    25.2938    16.3311 O.3   159 HOH   0.0000 
476 H1     -17.1950    25.2938    16.3311 H     159 HOH   0.0000 
477 H2     -18.4453    25.9408    16.9781 H     159 HOH   0.0000 
478 O      -24.4435    13.7187    20.0268 O.3   160 HOH   0.0000 
479 H1     -23.4835    13.7187    20.0268 H     160 HOH   0.0000 
480 H2     -24.7338    14.3658    20.6738 H     160 HOH   0.0000 
481 O        9.5153    33.4932    30.9487 O.3   161 HOH   0.0000 
482 H1      10.4753    33.4932    30.9487 H     161 HOH   0.0000 
483 H2       9.2251    34.1403    31.5957 H     161 HOH   0.0000 
484 O      -23.8208    22.3861    23.1169 O.3   162 HOH   0.0000 
485 H1     -22.8608    22.3861    23.1169 H     162 HOH   0.0000 
486 H2     -24.1111    23.0332    23.7639 H     162 HOH   0.0000 
487 O      -15.4339    27.4645    37.4256 O.3   163 HOH   0.0000 
488 H1     -14.4739    27.4645    37.4256 H     163 HOH   0.0000 
489 H2     -15.7241    28.1116    38.0727 H     163 HOH   0.0000 
490 O      -26.5926    21.8340    23.9286 O.3   164 HOH   0.0000 
491 H1     -25.6326    21.8340    23.9286 H     164 HOH   0.0000 
492 H2     -26.8829    22.4810    24.5756 H     164 HOH   0.0000 
493 O      -14.3174    27.6453    40.1679 O.3   165 HOH   0.0000 
494 H1     -13.3574    27.6453    40.1679 H     165 HOH   0.0000 
495 H2     -14.6077    28.2923    40.8150 H     165 HOH   0.0000 
496 O      -22.8009    16.9731    21.3062 O.3   166 HOH   0.0000 
497 H1     -21.8409    16.9731    21.3062 H     166 HOH   0.0000 
498 H2     -23.0912    17.6201    21.9533 H     166 HOH   0.0000 
499 O      -21.9144    11.2790    17.9516 O.3   167 HOH   0.0000 
500 H1     -20.9544    11.2790    17.9516 H     167 HOH   0.0000 
501 H2     -22.2047    11.9260    18.5987 H     167 HOH   0.0000 
502 O       -0.5721    13.5521    42.4762 O.3   168 HOH  -0.8340 
503 H1      -0.4526    12.8678    41.8177 H     168 HOH   0.4170 
504 H2       0.2613    13.5813    42.9460 H     168 HOH   0.4170 
505 O      -11.9724    12.5826     8.6992 O.3   169 HOH   0.0000 
506 H1     -11.0124    12.5826     8.6992 H     169 HOH   0.0000 
507 H2     -12.2627    13.2296     9.3463 H     169 HOH   0.0000 
508 O      -23.4073     8.8220    42.8059 O.3   170 HOH   0.0000 
509 H1     -22.4473     8.8220    42.8059 H     170 HOH   0.0000 
510 H2     -23.6976     9.4691    43.4529 H     170 HOH   0.0000 
511 O      -17.2828    -1.3965    38.3474 O.3   171 HOH   0.0000 
512 H1     -16.3228    -1.3965    38.3474 H     171 HOH   0.0000 
513 H2     -17.5731    -0.7494    38.9944 H     171 HOH   0.0000 
514 O      -17.4137    -0.7419    10.4178 O.3   172 HOH   0.0000 
515 H1     -16.4537    -0.7419    10.4178 H     172 HOH   0.0000 
516 H2     -17.7040    -0.0948    11.0649 H     172 HOH   0.0000 
517 O      -20.8293     5.8793    13.4010 O.3   173 HOH   0.0000 
518 H1     -19.8693     5.8793    13.4010 H     173 HOH   0.0000 
519 H2     -21.1195     6.5264    14.0480 H     173 HOH   0.0000 
520 O      -23.0060    19.2466    21.3889 O.3   174 HOH   0.0000 
521 H1     -22.0460    19.2466    21.3889 H     174 HOH   0.0000 
522 H2     -23.2962    19.8937    22.0359 H     174 HOH   0.0000 
523 O        5.6238    16.2674    18.3153 O.3   175 HOH   0.0000 
524 H1       6.5838    16.2674    18.3153 H     175 HOH   0.0000 
525 H2       5.3335    16.9144    18.9623 H     175 HOH   0.0000 
526 O      -26.4303    19.3165    23.7353 O.3   176 HOH   0.0000 
527 H1     -25.4703    19.3165    23.7353 H     176 HOH   0.0000 
528 H2     -26.7206    19.9635    24.3823 H     176 HOH   0.0000 
529 O       -1.9795    26.0645    48.7391 O.3   177 HOH   0.0000 
530 H1      -1.0195    26.0645    48.7391 H     177 HOH   0.0000 
531 H2      -2.2697    26.7116    49.3862 H     177 HOH   0.0000 
532 O       -1.7546    18.4154    50.9401 O.3   178 HOH   0.0000 
533 H1      -0.7946    18.4154    50.9401 H     178 HOH   0.0000 
534 H2      -2.0449    19.0625    51.5872 H     178 HOH   0.0000 
535 O        0.4578    -4.1721    23.9339 O.3   179 HOH   0.0000 
536 H1       1.4178    -4.1721    23.9339 H     179 HOH   0.0000 
537 H2       0.1675    -3.5251    24.5809 H     179 HOH   0.0000 
538 O      -26.9358    26.1780    33.1732 O.3   180 HOH   0.0000 
539 H1     -25.9758    26.1780    33.1732 H     180 HOH   0.0000 
540 H2     -27.2260    26.8250    33.8202 H     180 HOH   0.0000 
541 O      -21.0061     9.7242    35.7697 O.3   181 HOH   0.0000 
542 H1     -20.0461     9.7242    35.7697 H     181 HOH   0.0000 
543 H2     -21.2964    10.3712    36.4167 H     181 HOH   0.0000 
544 O       -9.5248    20.2634    13.2628 O.3   182 HOH   0.0000 
545 H1      -8.5648    20.2634    13.2628 H     182 HOH   0.0000 
546 H2      -9.8150    20.9104    13.9098 H     182 HOH   0.0000 
547 O       -9.0509    31.4377    40.8068 O.3   183 HOH   0.0000 
548 H1      -8.0909    31.4377    40.8068 H     183 HOH   0.0000 
549 H2      -9.3412    32.0847    41.4538 H     183 HOH   0.0000 
550 O       -9.2186    -1.1155     7.1575 O.3   184 HOH   0.0000 
551 H1      -8.2586    -1.1155     7.1575 H     184 HOH   0.0000 
552 H2      -9.5088    -0.4685     7.8045 H     184 HOH   0.0000 
553 O       -9.8473    -5.2426    31.7657 O.3   185 HOH   0.0000 
554 H1      -8.8873    -5.2426    31.7657 H     185 HOH   0.0000 
555 H2     -10.1376    -4.5956    32.4128 H     185 HOH   0.0000 
556 O       -1.6354    30.8491    13.4983 O.3   186 HOH   0.0000 
557 H1      -0.6754    30.8491    13.4983 H     186 HOH   0.0000 
558 H2      -1.9257    31.4962    14.1454 H     186 HOH   0.0000 
559 O       -2.2018     8.8356    30.2821 O.3   187 HOH   0.0000 
560 H1      -1.2418     8.8356    30.2821 H     187 HOH   0.0000 
561 H2      -2.4921     9.4827    30.9291 H     187 HOH   0.0000 
562 O       -7.2905    33.2408    20.0090 O.3   188 HOH   0.0000 
563 H1      -6.3305    33.2408    20.0090 H     188 HOH   0.0000 
564 H2      -7.5808    33.8878    20.6561 H     188 HOH   0.0000 
565 O       -4.0366    33.7008    22.3854 O.3   189 HOH   0.0000 
566 H1      -3.0766    33.7008    22.3854 H     189 HOH   0.0000 
567 H2      -4.3269    34.3479    23.0325 H     189 HOH   0.0000 
568 O       -1.3285     9.9201    38.2304 O.3   190 HOH   0.0000 
569 H1      -0.3685     9.9201    38.2304 H     190 HOH   0.0000 
570 H2      -1.6188    10.5672    38.8774 H     190 HOH   0.0000 
571 O        3.5115    16.2583    16.7826 O.3   191 HOH   0.0000 
572 H1       4.4715    16.2583    16.7826 H     191 HOH   0.0000 
573 H2       3.2212    16.9054    17.4296 H     191 HOH   0.0000 
574 O        4.4542    24.1162    20.1171 O.3   192 HOH   0.0000 
575 H1       5.4142    24.1162    20.1171 H     192 HOH   0.0000 
576 H2       4.1639    24.7632    20.7641 H     192 HOH   0.0000 
@<TRIPOS>BOND
  1   1   2  1   
  2   1   3  1   
  3   4   5  1   
  4   4   6  1   
  5   7   8  1   
  6   7   9  1   
  7  10  11  1   
  8  10  12  1   
  9  13  14  1   
 10  13  15  1   
 11  16  17  1   
 12  16  18  1   
 13  19  20  1   
 14  19  21  1   
 15  22  23  1   
 16  22  24  1   
 17  25  26  1   
 18  25  27  1   
 19  28  29  1   
 20  28  30  1   
 21  31  32  1   
 22  31  33  1   
 23  34  35  1   
 24  34  36  1   
 25  37  38  1   
 26  37  39  1   
 27  40  41  1   
 28  40  42  1   
 29  43  44  1   
 30  43  45  1   
 31  46  47  1   
 32  46  48  1   
 33  49  50  1   
 34  49  51  1   
 35  52  53  1   
 36  52  54  1   
 37  55  56  1   
 38  55  57  1   
 39  58  59  1   
 40  58  60  1   
 41  61  62  1   
 42  61  63  1   
 43  64  65  1   
 44  64  66  1   
 45  67  68  1   
 46  67  69  1   
 47  70  71  1   
 48  70  72  1   
 49  73  74  1   
 50  73  75  1   
 51  76  77  1   
 52  76  78  1   
 53  79  80  1   
 54  79  81  1   
 55  82  83  1   
 56  82  84  1   
 57  85  86  1   
 58  85  87  1   
 59  88  89  1   
 60  88  90  1   
 61  91  92  1   
 62  91  93  1   
 63  94  95  1   
 64  94  96  1   
 65  97  98  1   
 66  97  99  1   
 67 100 101  1   
 68 100 102  1   
 69 103 104  1   
 70 103 105  1   
 71 106 107  1   
 72 106 108  1   
 73 109 110  1   
 74 109 111  1   
 75 112 113  1   
 76 112 114  1   
 77 115 116  1   
 78 115 117  1   
 79 118 119  1   
 80 118 120  1   
 81 121 122  1   
 82 121 123  1   
 83 124 125  1   
 84 124 126  1   
 85 127 128  1   
 86 127 129  1   
 87 130 131  1   
 88 130 132  1   
 89 133 134  1   
 90 133 135  1   
 91 136 137  1   
 92 136 138  1   
 93 139 140  1   
 94 139 141  1   
 95 142 143  1   
 96 142 144  1   
 97 145 146  1   
 98 145 147  1   
 99 148 149  1   
100 148 150  1   
101 151 152  1   
102 151 153  1   
103 154 155  1   
104 154 156  1   
105 157 158  1   
106 157 159  1   
107 160 161  1   
108 160 162  1   
109 163 164  1   
110 163 165  1   
111 166 167  1   
112 166 168  1   
113 169 170  1   
114 169 171  1   
115 172 173  1   
116 172 174  1   
117 175 176  1   
118 175 177  1   
119 178 179  1   
120 178 180  1   
121 181 182  1   
122 181 183  1   
123 184 185  1   
124 184 186  1   
125 187 188  1   
126 187 189  1   
127 190 191  1   
128 190 192  1   
129 193 194  1   
130 193 195  1   
131 196 197  1   
132 196 198  1   
133 199 200  1   
134 199 201  1   
135 202 203  1   
136 202 204  1   
137 205 206  1   
138 205 207  1   
139 208 209  1   
140 208 210  1   
141 211 212  1   
142 211 213  1   
143 214 215  1   
144 214 216  1   
145 217 218  1   
146 217 219  1   
147 220 221  1   
148 220 222  1   
149 223 224  1   
150 223 225  1   
151 226 227  1   
152 226 228  1   
153 229 230  1   
154 229 231  1   
155 232 233  1   
156 232 234  1   
157 235 236  1   
158 235 237  1   
159 238 239  1   
160 238 240  1   
161 241 242  1   
162 241 243  1   
163 244 245  1   
164 244 246  1   
165 247 248  1   
166 247 249  1   
167 250 251  1   
168 250 252  1   
169 253 254  1   
170 253 255  1   
171 256 257  1   
172 256 258  1   
173 259 260  1   
174 259 261  1   
175 262 263  1   
176 262 264  1   
177 265 266  1   
178 265 267  1   
179 268 269  1   
180 268 270  1   
181 271 272  1   
182 271 273  1   
183 274 275  1   
184 274 276  1   
185 277 278  1   
186 277 279  1   
187 280 281  1   
188 280 282  1   
189 283 284  1   
190 283 285  1   
191 286 287  1   
192 286 288  1   
193 289 290  1   
194 289 291  1   
195 292 293  1   
196 292 294  1   
197 295 296  1   
198 295 297  1   
199 298 299  1   
200 298 300  1   
201 301 302  1   
202 301 303  1   
203 304 305  1   
204 304 306  1   
205 307 308  1   
206 307 309  1   
207 310 311  1   
208 310 312  1   
209 313 314  1   
210 313 315  1   
211 316 317  1   
212 316 318  1   
213 319 320  1   
214 319 321  1   
215 322 323  1   
216 322 324  1   
217 325 326  1   
218 325 327  1   
219 328 329  1   
220 328 330  1   
221 331 332  1   
222 331 333  1   
223 334 335  1   
224 334 336  1   
225 337 338  1   
226 337 339  1   
227 340 341  1   
228 340 342  1   
229 343 344  1   
230 343 345  1   
231 346 347  1   
232 346 348  1   
233 349 350  1   
234 349 351  1   
235 352 353  1   
236 352 354  1   
237 355 356  1   
238 355 357  1   
239 358 359  1   
240 358 360  1   
241 361 362  1   
242 361 363  1   
243 364 365  1   
244 364 366  1   
245 367 368  1   
246 367 369  1   
247 370 371  1   
248 370 372  1   
249 373 374  1   
250 373 375  1   
251 376 377  1   
252 376 378  1   
253 379 380  1   
254 379 381  1   
255 382 383  1   
256 382 384  1   
257 385 386  1   
258 385 387  1   
259 388 389  1   
260 388 390  1   
261 391 392  1   
262 391 393  1   
263 394 395  1   
264 394 396  1   
265 397 398  1   
266 397 399  1   
267 400 401  1   
268 400 402  1   
269 403 404  1   
270 403 405  1   
271 406 407  1   
272 406 408  1   
273 409 410  1   
274 409 411  1   
275 412 413  1   
276 412 414  1   
277 415 416  1   
278 415 417  1   
279 418 419  1   
280 418 420  1   
281 421 422  1   
282 421 423  1   
283 424 425  1   
284 424 426  1   
285 427 428  1   
286 427 429  1   
287 430 431  1   
288 430 432  1   
289 433 434  1   
290 433 435  1   
291 436 437  1   
292 436 438  1   
293 439 440  1   
294 439 441  1   
295 442 443  1   
296 442 444  1   
297 445 446  1   
298 445 447  1   
299 448 449  1   
300 448 450  1   
301 451 452  1   
302 451 453  1   
303 454 455  1   
304 454 456  1   
305 457 458  1   
306 457 459  1   
307 460 461  1   
308 460 462  1   
309 463 464  1   
310 463 465  1   
311 466 467  1   
312 466 468  1   
313 469 470  1   
314 469 471  1   
315 472 473  1   
316 472 474  1   
317 475 476  1   
318 475 477  1   
319 478 479  1   
320 478 480  1   
321 481 482  1   
322 481 483  1   
323 484 485  1   
324 484 486  1   
325 487 488  1   
326 487 489  1   
327 490 491  1   
328 490 492  1   
329 493 494  1   
330 493 495  1   
331 496 497  1   
332 496 498  1   
333 499 500  1   
334 499 501  1   
335 502 503  1   
336 502 504  1   
337 505 506  1   
338 505 507  1   
339 508 509  1   
340 508 510  1   
341 511 512  1   
342 511 513  1   
343 514 515  1   
344 514 516  1   
345 517 518  1   
346 517 519  1   
347 520 521  1   
348 520 522  1   
349 523 524  1   
350 523 525  1   
351 526 527  1   
352 526 528  1   
353 529 530  1   
354 529 531  1   
355 532 533  1   
356 532 534  1   
357 535 536  1   
358 535 537  1   
359 538 539  1   
360 538 540  1   
361 541 542  1   
362 541 543  1   
363 544 545  1   
364 544 546  1   
365 547 548  1   
366 547 549  1   
367 550 551  1   
368 550 552  1   
369 553 554  1   
370 553 555  1   
371 556 557  1   
372 556 558  1   
373 559 560  1   
374 559 561  1   
375 562 563  1   
376 562 564  1   
377 565 566  1   
378 565 567  1   
379 568 569  1   
380 568 570  1   
381 571 572  1   
382 571 573  1   
383 574 575  1   
384 574 576  1   
@<TRIPOS>SUBSTRUCTURE
  1 HOH   1 GROUP 4 A **** 0
  2 HOH   4 GROUP 4 A **** 0
  3 HOH   7 GROUP 4 A **** 0
  4 HOH  10 GROUP 4 A **** 0
  5 HOH  13 GROUP 4 A **** 0
  6 HOH  16 GROUP 4 A **** 0
  7 HOH  19 GROUP 4 A **** 0
  8 HOH  22 GROUP 4 A **** 0
  9 HOH  25 GROUP 4 A **** 0
 10 HOH  28 GROUP 4 A **** 0
 11 HOH  31 GROUP 4 A **** 0
 12 HOH  34 GROUP 4 A **** 0
 13 HOH  37 GROUP 4 A **** 0
 14 HOH  40 GROUP 4 A **** 0
 15 HOH  43 GROUP 4 A **** 0
 16 HOH  46 GROUP 4 A **** 0
 17 HOH  49 GROUP 4 A **** 0
 18 HOH  52 GROUP 4 A **** 0
 19 HOH  55 GROUP 4 A **** 0
 20 HOH  58 GROUP 4 A **** 0
 21 HOH  61 GROUP 4 A **** 0
 22 HOH  64 GROUP 4 A **** 0
 23 HOH  67 GROUP 4 A **** 0
 24 HOH  70 GROUP 4 A **** 0
 25 HOH  73 GROUP 4 A **** 0
 26 HOH  76 GROUP 4 A **** 0
 27 HOH  79 GROUP 4 A **** 0
 28 HOH  82 GROUP 4 A **** 0
 29 HOH  85 GROUP 4 A **** 0
 30 HOH  88 GROUP 4 A **** 0
 31 HOH  91 GROUP 4 A **** 0
 32 HOH  94 GROUP 4 A **** 0
 33 HOH  97 GROUP 4 A **** 0
 34 HOH 100 GROUP 4 A **** 0
 35 HOH 103 GROUP 4 A **** 0
 36 HOH 106 GROUP 4 A **** 0
 37 HOH 109 GROUP 4 A **** 0
 38 HOH 112 GROUP 4 A **** 0
 39 HOH 115 GROUP 4 A **** 0
 40 HOH 118 GROUP 4 A **** 0
 41 HOH 121 GROUP 4 A **** 0
 42 HOH 124 GROUP 4 A **** 0
 43 HOH 127 GROUP 4 A **** 0
 44 HOH 130 GROUP 4 A **** 0
 45 HOH 133 GROUP 4 A **** 0
 46 HOH 136 GROUP 4 A **** 0
 47 HOH 139 GROUP 4 A **** 0
 48 HOH 142 GROUP 4 A **** 0
 49 HOH 145 GROUP 4 A **** 0
 50 HOH 148 GROUP 4 A **** 0
 51 HOH 151 GROUP 4 A **** 0
 52 HOH 154 GROUP 4 A **** 0
 53 HOH 157 GROUP 4 A **** 0
 54 HOH 160 GROUP 4 A **** 0
 55 HOH 163 GROUP 4 A **** 0
 56 HOH 166 GROUP 4 A **** 0
 57 HOH 169 GROUP 4 A **** 0
 58 HOH 172 GROUP 4 A **** 0
 59 HOH 175 GROUP 4 A **** 0
 60 HOH 178 GROUP 4 A **** 0
 61 HOH 181 GROUP 4 A **** 0
 62 HOH 184 GROUP 4 A **** 0
 63 HOH 187 GROUP 4 A **** 0
 64 HOH 190 GROUP 4 A **** 0
 65 HOH 193 GROUP 4 A **** 0
 66 HOH 196 GROUP 4 A **** 0
 67 HOH 199 GROUP 4 A **** 0
 68 HOH 202 GROUP 4 A **** 0
 69 HOH 205 GROUP 4 A **** 0
 70 HOH 208 GROUP 4 A **** 0
 71 HOH 211 GROUP 4 A **** 0
 72 HOH 214 GROUP 4 A **** 0
 73 HOH 217 GROUP 4 A **** 0
 74 HOH 220 GROUP 4 A **** 0
 75 HOH 223 GROUP 4 A **** 0
 76 HOH 226 GROUP 4 A **** 0
 77 HOH 229 GROUP 4 A **** 0
 78 HOH 232 GROUP 4 A **** 0
 79 HOH 235 GROUP 4 A **** 0
 80 HOH 238 GROUP 4 A **** 0
 81 HOH 241 GROUP 4 A **** 0
 82 HOH 244 GROUP 4 A **** 0
 83 HOH 247 GROUP 4 A **** 0
 84 HOH 250 GROUP 4 A **** 0
 85 HOH 253 GROUP 4 A **** 0
 86 HOH 256 GROUP 4 A **** 0
 87 HOH 259 GROUP 4 A **** 0
 88 HOH 262 GROUP 4 A **** 0
 89 HOH 265 GROUP 4 A **** 0
 90 HOH 268 GROUP 4 A **** 0
 91 HOH 271 GROUP 4 A **** 0
 92 HOH 274 GROUP 4 A **** 0
 93 HOH 277 GROUP 4 A **** 0
 94 HOH 280 GROUP 4 A **** 0
 95 HOH 283 GROUP 4 A **** 0
 96 HOH 286 GROUP 4 A **** 0
 97 HOH 289 GROUP 4 A **** 0
 98 HOH 292 GROUP 4 A **** 0
 99 HOH 295 GROUP 4 A **** 0
100 HOH 298 GROUP 4 A **** 0
101 HOH 301 GROUP 4 A **** 0
102 HOH 304 GROUP 4 A **** 0
103 HOH 307 GROUP 4 A **** 0
104 HOH 310 GROUP 4 A **** 0
105 HOH 313 GROUP 4 A **** 0
106 HOH 316 GROUP 4 A **** 0
107 HOH 319 GROUP 4 A **** 0
108 HOH 322 GROUP 4 A **** 0
109 HOH 325 GROUP 4 A **** 0
110 HOH 328 GROUP 4 A **** 0
111 HOH 331 GROUP 4 A **** 0
112 HOH 334 GROUP 4 A **** 0
113 HOH 337 GROUP 4 A **** 0
114 HOH 340 GROUP 4 A **** 0
115 HOH 343 GROUP 4 A **** 0
116 HOH 346 GROUP 4 A **** 0
117 HOH 349 GROUP 4 A **** 0
118 HOH 352 GROUP 4 A **** 0
119 HOH 355 GROUP 4 A **** 0
120 HOH 358 GROUP 4 A **** 0
121 HOH 361 GROUP 4 A **** 0
122 HOH 364 GROUP 4 A **** 0
123 HOH 367 GROUP 4 A **** 0
124 HOH 370 GROUP 4 A **** 0
125 HOH 373 GROUP 4 A **** 0
126 HOH 376 GROUP 4 A **** 0
127 HOH 379 GROUP 4 A **** 0
128 HOH 382 GROUP 4 A **** 0
129 HOH 385 GROUP 4 A **** 0
130 HOH 388 GROUP 4 A **** 0
131 HOH 391 GROUP 4 A **** 0
132 HOH 394 GROUP 4 A **** 0
133 HOH 397 GROUP 4 A **** 0
134 HOH 400 GROUP 4 A **** 0
135 HOH 403 GROUP 4 A **** 0
136 HOH 406 GROUP 4 A **** 0
137 HOH 409 GROUP 4 A **** 0
138 HOH 412 GROUP 4 A **** 0
139 HOH 415 GROUP 4 A **** 0
140 HOH 418 GROUP 4 A **** 0
141 HOH 421 GROUP 4 A **** 0
142 HOH 424 GROUP 4 A **** 0
143 HOH 427 GROUP 4 A **** 0
144 HOH 430 GROUP 4 A **** 0
145 HOH 433 GROUP 4 A **** 0
146 HOH 436 GROUP 4 A **** 0
147 HOH 439 GROUP 4 A **** 0
148 HOH 442 GROUP 4 A **** 0
149 HOH 445 GROUP 4 A **** 0
150 HOH 448 GROUP 4 A **** 0
151 HOH 451 GROUP 4 A **** 0
152 HOH 454 GROUP 4 A **** 0
153 HOH 457 GROUP 4 A **** 0
154 HOH 460 GROUP 4 A **** 0
155 HOH 463 GROUP 4 A **** 0
156 HOH 466 GROUP 4 A **** 0
157 HOH 469 GROUP 4 A **** 0
158 HOH 472 GROUP 4 A **** 0
159 HOH 475 GROUP 4 A **** 0
160 HOH 478 GROUP 4 A **** 0
161 HOH 481 GROUP 4 A **** 0
162 HOH 484 GROUP 4 A **** 0
163 HOH 487 GROUP 4 A **** 0
164 HOH 490 GROUP 4 A **** 0
165 HOH 493 GROUP 4 A **** 0
166 HOH 496 GROUP 4 A **** 0
167 HOH 499 GROUP 4 A **** 0
168 HOH 502 GROUP 4 A **** 0
169 HOH 505 GROUP 4 A **** 0
170 HOH 508 GROUP 4 A **** 0
171 HOH 511 GROUP 4 A **** 0
172 HOH 514 GROUP 4 A **** 0
173 HOH 517 GROUP 4 A **** 0
174 HOH 520 GROUP 4 A **** 0
175 HOH 523 GROUP 4 A **** 0
176 HOH 526 GROUP 4 A **** 0
177 HOH 529 GROUP 4 A **** 0
178 HOH 532 GROUP 4 A **** 0
179 HOH 535 GROUP 4 A **** 0
180 HOH 538 GROUP 4 A **** 0
181 HOH 541 GROUP 4 A **** 0
182 HOH 544 GROUP 4 A **** 0
183 HOH 547 GROUP 4 A **** 0
184 HOH 550 GROUP 4 A **** 0
185 HOH 553 GROUP 4 A **** 0
186 HOH 556 GROUP 4 A **** 0
187 HOH 559 GROUP 4 A **** 0
188 HOH 562 GROUP 4 A **** 0
189 HOH 565 GROUP 4 A **** 0
190 HOH 568 GROUP 4 A **** 0
191 HOH 571 GROUP 4 A **** 0
192 HOH 574 GROUP 4 A **** 0

# MOE 2012.10 (io_trps.svl 2012.10)
