@<TRIPOS>MOLECULE
2g2h.A
45 48 1 0 0 
SMALL
USER_CHARGES


@<TRIPOS>ATOM
  1 O1      -1.9482    14.2097    49.1548 O.3   1 P16  -0.6800 
  2 H1      -2.4697    14.0317    49.9409 H     1 P16   0.4000 
  3 C2      -2.7982    14.7814    48.2044 C.3   1 P16   0.2635 
  4 H21     -3.2144    15.6981    48.6223 H     1 P16   0.0800 
  5 H22     -3.6045    14.0780    47.9967 H     1 P16   0.0800 
  6 C3      -2.1066    15.1232    46.8881 C.ar  1 P16  -0.1435 
  7 C4      -1.5660    14.0718    46.0518 C.ar  1 P16  -0.1500 
  8 H4      -1.6500    13.0409    46.3627 H     1 P16   0.1500 
  9 C5      -0.9243    14.3909    44.8221 C.ar  1 P16  -0.1500 
 10 H5      -0.5243    13.5983    44.2071 H     1 P16   0.1500 
 11 C6      -0.8035    15.7461    44.3928 C.ar  1 P16  -0.1500 
 12 H6      -0.3148    15.9738    43.4570 H     1 P16   0.1500 
 13 C7      -1.3359    16.8180    45.2112 C.ar  1 P16   0.1000 
 14 N9      -1.2615    18.2118    44.8735 N.pl3 1 P16  -0.6000 
 15 H9      -1.8326    18.8270    45.4352 H     1 P16   0.4000 
 16 C10     -0.5150    18.8285    43.8842 C.ar  1 P16   0.7200 
 17 N11     -0.6456    20.2191    43.8279 N.ar  1 P16  -0.6200 
 18 C12      0.0839    20.8698    42.8844 C.ar  1 P16   0.1600 
 19 H12      0.0045    21.9451    42.8224 H     1 P16   0.1500 
 20 C13      0.9581    20.1909    41.9635 C.ar  1 P16   0.0284 
 21 C16      1.7604    20.8682    40.9547 C.2   1 P16  -0.1784 
 22 H16      1.7103    21.9438    40.8704 H     1 P16   0.1500 
 23 C17      2.5817    20.1601    40.1068 C.2   1 P16  -0.0140 
 24 C18      2.6697    18.6536    40.2055 C.2   1 P16   0.6156 
 25 O21      3.3741    17.9423    39.4968 O.2   1 P16  -0.5700 
 26 N19      1.8529    17.9976    41.2312 N.am  1 P16  -0.4771 
 27 C14      1.0202    18.7378    42.0989 C.ar  1 P16   0.4270 
 28 N15      0.2821    18.0977    43.0520 N.ar  1 P16  -0.6200 
 29 C20      1.9038    16.5093    41.3751 C.3   1 P16   0.0601 
 30 H201     2.5887    16.0959    40.6348 H     1 P16   0.0800 
 31 H202     0.9076    16.0951    41.2198 H     1 P16   0.0800 
 32 H203     2.2520    16.2527    42.3756 H     1 P16   0.0800 
 33 C22      3.4314    20.8288    39.0760 C.ar  1 P16   0.0284 
 34 C27      2.9559    21.1214    37.7376 C.ar  1 P16   0.1770 
 35 CL28     1.3411    20.7231    37.2169 Cl    1 P16  -0.1770 
 36 C26      3.8134    21.7597    36.7831 C.ar  1 P16  -0.1500 
 37 H26      3.4451    21.9719    35.7903 H     1 P16   0.1500 
 38 C25      5.1461    22.1164    37.1322 C.ar  1 P16  -0.1500 
 39 H25      5.7813    22.5938    36.4007 H     1 P16   0.1500 
 40 C24      5.6484    21.8504    38.4333 C.ar  1 P16  -0.1500 
 41 H24      6.6595    22.1255    38.6947 H     1 P16   0.1500 
 42 C23      4.8013    21.2144    39.3939 C.ar  1 P16   0.1770 
 43 CL29     5.5034    20.9230    40.9887 Cl    1 P16  -0.1770 
 44 C8      -1.9868    16.4889    46.4637 C.ar  1 P16  -0.1500 
 45 H8      -2.3853    17.2787    47.0833 H     1 P16   0.1500 
@<TRIPOS>BOND
  1   1   2  1   
  2   1   3  1   
  3   3   4  1   
  4   3   5  1   
  5   3   6  1   
  6   6   7  ar  
  7   6  44  ar  
  8   7   8  1   
  9   7   9  ar  
 10   9  10  1   
 11   9  11  ar  
 12  11  12  1   
 13  11  13  ar  
 14  13  14  1   
 15  13  44  ar  
 16  14  15  1   
 17  14  16  1   
 18  16  17  ar  
 19  16  28  ar  
 20  17  18  ar  
 21  18  19  1   
 22  18  20  ar  
 23  20  21  1   
 24  20  27  ar  
 25  21  22  1   
 26  21  23  2   
 27  23  24  1   
 28  23  33  1   
 29  24  25  2   
 30  24  26  am  
 31  26  27  1   
 32  26  29  1   
 33  27  28  ar  
 34  29  30  1   
 35  29  31  1   
 36  29  32  1   
 37  33  34  ar  
 38  33  42  ar  
 39  34  35  1   
 40  34  36  ar  
 41  36  37  1   
 42  36  38  ar  
 43  38  39  1   
 44  38  40  ar  
 45  40  41  1   
 46  40  42  ar  
 47  42  43  1   
 48  44  45  1   
@<TRIPOS>SUBSTRUCTURE
  1 P16  27 GROUP 4 A **** 0

# MOE 2012.10 (io_trps.svl 2012.10)
