@<TRIPOS>MOLECULE
2g2h.A
711 474 237 0 0 
SMALL
USER_CHARGES


@<TRIPOS>ATOM
  1 O        1.1603    17.9895    33.1154 O.3     1 HOH  -0.8340 
  2 H1       1.1447    17.1376    32.6793 H       1 HOH   0.4170 
  3 H2       0.2899    18.3556    32.9585 H       1 HOH   0.4170 
  4 O      -16.4302     6.5979    45.4943 O.3     2 HOH   0.0000 
  5 H1     -15.4702     6.5979    45.4943 H       2 HOH   0.0000 
  6 H2     -16.7205     7.2450    46.1413 H       2 HOH   0.0000 
  7 O       -9.4969     7.2249    22.4238 O.3     3 HOH   0.0000 
  8 H1      -8.5369     7.2249    22.4238 H       3 HOH   0.0000 
  9 H2      -9.7872     7.8719    23.0709 H       3 HOH   0.0000 
 10 O       -6.5649     9.6015    33.7658 O.3     4 HOH   0.0000 
 11 H1      -5.6049     9.6015    33.7658 H       4 HOH   0.0000 
 12 H2      -6.8551    10.2486    34.4128 H       4 HOH   0.0000 
 13 O       -2.5636    22.9092    16.8111 O.3     5 HOH   0.0000 
 14 H1      -1.6036    22.9092    16.8111 H       5 HOH   0.0000 
 15 H2      -2.8539    23.5562    17.4581 H       5 HOH   0.0000 
 16 O      -17.7538     9.9354    17.4188 O.3     6 HOH   0.0000 
 17 H1     -16.7938     9.9354    17.4188 H       6 HOH   0.0000 
 18 H2     -18.0441    10.5825    18.0659 H       6 HOH   0.0000 
 19 O       -7.3850     6.1614    21.1097 O.3     7 HOH   0.0000 
 20 H1      -6.4250     6.1614    21.1097 H       7 HOH   0.0000 
 21 H2      -7.6753     6.8084    21.7567 H       7 HOH   0.0000 
 22 O       -3.9488     3.6488    27.3801 O.3     8 HOH   0.0000 
 23 H1      -2.9888     3.6488    27.3801 H       8 HOH   0.0000 
 24 H2      -4.2391     4.2958    28.0272 H       8 HOH   0.0000 
 25 O       -2.2760    29.9512    35.8739 O.3     9 HOH   0.0000 
 26 H1      -1.3160    29.9512    35.8739 H       9 HOH   0.0000 
 27 H2      -2.5662    30.5982    36.5209 H       9 HOH   0.0000 
 28 O       -1.5958    24.1705    18.9684 O.3    10 HOH   0.0000 
 29 H1      -0.6358    24.1705    18.9684 H      10 HOH   0.0000 
 30 H2      -1.8860    24.8176    19.6155 H      10 HOH   0.0000 
 31 O       15.9233    25.3563    27.7304 O.3    11 HOH   0.0000 
 32 H1      16.8833    25.3563    27.7304 H      11 HOH   0.0000 
 33 H2      15.6330    26.0033    28.3775 H      11 HOH   0.0000 
 34 O       10.1338    22.4971    22.3406 O.3    12 HOH   0.0000 
 35 H1      11.0938    22.4971    22.3406 H      12 HOH   0.0000 
 36 H2       9.8435    23.1442    22.9876 H      12 HOH   0.0000 
 37 O       11.2224    32.1506    51.6657 O.3    13 HOH   0.0000 
 38 H1      12.1824    32.1506    51.6657 H      13 HOH   0.0000 
 39 H2      10.9321    32.7976    52.3128 H      13 HOH   0.0000 
 40 O       -0.0244    26.9825    47.1131 O.3    14 HOH   0.0000 
 41 H1       0.9356    26.9825    47.1131 H      14 HOH   0.0000 
 42 H2      -0.3146    27.6296    47.7602 H      14 HOH   0.0000 
 43 O      -14.5166     6.2927    21.9103 O.3    15 HOH   0.0000 
 44 H1     -13.5566     6.2927    21.9103 H      15 HOH   0.0000 
 45 H2     -14.8069     6.9397    22.5574 H      15 HOH   0.0000 
 46 O       -4.1557     0.3492    18.6016 O.3    16 HOH   0.0000 
 47 H1      -3.1957     0.3492    18.6016 H      16 HOH   0.0000 
 48 H2      -4.4460     0.9963    19.2487 H      16 HOH   0.0000 
 49 O       -4.0140    11.9811    27.1203 O.3    17 HOH   0.0000 
 50 H1      -3.0540    11.9811    27.1203 H      17 HOH   0.0000 
 51 H2      -4.3043    12.6282    27.7673 H      17 HOH   0.0000 
 52 O      -18.7895    14.2103    31.7464 O.3    18 HOH   0.0000 
 53 H1     -17.8295    14.2103    31.7464 H      18 HOH   0.0000 
 54 H2     -19.0798    14.8573    32.3934 H      18 HOH   0.0000 
 55 O      -13.1192    19.7121    46.3612 O.3    19 HOH   0.0000 
 56 H1     -12.1592    19.7121    46.3612 H      19 HOH   0.0000 
 57 H2     -13.4095    20.3592    47.0083 H      19 HOH   0.0000 
 58 O       -3.3464    25.4310    20.5743 O.3    20 HOH   0.0000 
 59 H1      -2.3864    25.4310    20.5743 H      20 HOH   0.0000 
 60 H2      -3.6367    26.0780    21.2213 H      20 HOH   0.0000 
 61 O        8.2191    23.7213    21.0000 O.3    21 HOH   0.0000 
 62 H1       9.1791    23.7213    21.0000 H      21 HOH   0.0000 
 63 H2       7.9288    24.3683    21.6470 H      21 HOH   0.0000 
 64 O      -16.9460     6.9462    42.7778 O.3    22 HOH   0.0000 
 65 H1     -15.9860     6.9462    42.7778 H      22 HOH   0.0000 
 66 H2     -17.2363     7.5932    43.4248 H      22 HOH   0.0000 
 67 O       -4.7333    16.7120    14.5255 O.3    23 HOH   0.0000 
 68 H1      -3.7733    16.7120    14.5255 H      23 HOH   0.0000 
 69 H2      -5.0236    17.3590    15.1726 H      23 HOH   0.0000 
 70 O      -19.4820    16.5684    32.6690 O.3    24 HOH   0.0000 
 71 H1     -18.5220    16.5684    32.6690 H      24 HOH   0.0000 
 72 H2     -19.7723    17.2154    33.3161 H      24 HOH   0.0000 
 73 O        1.6609    29.4726    35.5289 O.3    25 HOH   0.0000 
 74 H1       2.6209    29.4726    35.5289 H      25 HOH   0.0000 
 75 H2       1.3706    30.1196    36.1759 H      25 HOH   0.0000 
 76 O      -14.0820    20.6523    48.9482 O.3    26 HOH   0.0000 
 77 H1     -13.1220    20.6523    48.9482 H      26 HOH   0.0000 
 78 H2     -14.3723    21.2994    49.5952 H      26 HOH   0.0000 
 79 O        4.0198    23.7247    56.8827 O.3    27 HOH   0.0000 
 80 H1       4.9798    23.7247    56.8827 H      27 HOH   0.0000 
 81 H2       3.7295    24.3717    57.5298 H      27 HOH   0.0000 
 82 O      -14.7674    12.8591    10.6068 O.3    28 HOH   0.0000 
 83 H1     -13.8074    12.8591    10.6068 H      28 HOH   0.0000 
 84 H2     -15.0577    13.5062    11.2538 H      28 HOH   0.0000 
 85 O      -16.4658    13.5682    48.1768 O.3    29 HOH   0.0000 
 86 H1     -15.5058    13.5682    48.1768 H      29 HOH   0.0000 
 87 H2     -16.7561    14.2153    48.8238 H      29 HOH   0.0000 
 88 O       -9.3854    23.7881    17.7961 O.3    30 HOH   0.0000 
 89 H1      -8.4254    23.7881    17.7961 H      30 HOH   0.0000 
 90 H2      -9.6757    24.4352    18.4431 H      30 HOH   0.0000 
 91 O       -9.4254     6.5895    33.6545 O.3    31 HOH   0.0000 
 92 H1      -8.4654     6.5895    33.6545 H      31 HOH   0.0000 
 93 H2      -9.7157     7.2366    34.3015 H      31 HOH   0.0000 
 94 O      -14.8308     7.0849    12.8327 O.3    32 HOH   0.0000 
 95 H1     -13.8708     7.0849    12.8327 H      32 HOH   0.0000 
 96 H2     -15.1211     7.7320    13.4798 H      32 HOH   0.0000 
 97 O      -15.9684    -0.0813    25.3072 O.3    33 HOH   0.0000 
 98 H1     -15.0084    -0.0813    25.3072 H      33 HOH   0.0000 
 99 H2     -16.2586     0.5658    25.9542 H      33 HOH   0.0000 
100 O        7.5314    23.2799    23.8351 O.3    34 HOH   0.0000 
101 H1       8.4914    23.2799    23.8351 H      34 HOH   0.0000 
102 H2       7.2411    23.9270    24.4822 H      34 HOH   0.0000 
103 O      -24.3603     7.9577    45.3146 O.3    35 HOH   0.0000 
104 H1     -23.4003     7.9577    45.3146 H      35 HOH   0.0000 
105 H2     -24.6506     8.6047    45.9616 H      35 HOH   0.0000 
106 O       -1.6185    11.3882    23.1130 O.3    36 HOH   0.0000 
107 H1      -0.6585    11.3882    23.1130 H      36 HOH   0.0000 
108 H2      -1.9088    12.0353    23.7601 H      36 HOH   0.0000 
109 O      -22.7173    19.0783    45.9451 O.3    37 HOH   0.0000 
110 H1     -21.7573    19.0783    45.9451 H      37 HOH   0.0000 
111 H2     -23.0076    19.7254    46.5921 H      37 HOH   0.0000 
112 O        9.4009    15.9889    17.0209 O.3    38 HOH   0.0000 
113 H1      10.3609    15.9889    17.0209 H      38 HOH   0.0000 
114 H2       9.1106    16.6359    17.6679 H      38 HOH   0.0000 
115 O      -15.8551    10.1295    12.6110 O.3    39 HOH   0.0000 
116 H1     -14.8951    10.1295    12.6110 H      39 HOH   0.0000 
117 H2     -16.1454    10.7765    13.2581 H      39 HOH   0.0000 
118 O      -15.3135     4.7546    39.9311 O.3    40 HOH   0.0000 
119 H1     -14.3535     4.7546    39.9311 H      40 HOH   0.0000 
120 H2     -15.6037     5.4016    40.5781 H      40 HOH   0.0000 
121 O       -3.3861    14.9189    25.3503 O.3    41 HOH   0.0000 
122 H1      -2.4261    14.9189    25.3503 H      41 HOH   0.0000 
123 H2      -3.6764    15.5660    25.9974 H      41 HOH   0.0000 
124 O      -24.2130     4.5725    23.4008 O.3    42 HOH   0.0000 
125 H1     -23.2530     4.5725    23.4008 H      42 HOH   0.0000 
126 H2     -24.5033     5.2196    24.0479 H      42 HOH   0.0000 
127 O      -23.2887     7.2860    40.2837 O.3    43 HOH   0.0000 
128 H1     -22.3287     7.2860    40.2837 H      43 HOH   0.0000 
129 H2     -23.5789     7.9330    40.9307 H      43 HOH   0.0000 
130 O        2.3593    33.0393    34.9426 O.3    44 HOH   0.0000 
131 H1       3.3193    33.0393    34.9426 H      44 HOH   0.0000 
132 H2       2.0690    33.6863    35.5896 H      44 HOH   0.0000 
133 O      -26.8958    17.5304    40.3827 O.3    45 HOH   0.0000 
134 H1     -25.9358    17.5304    40.3827 H      45 HOH   0.0000 
135 H2     -27.1861    18.1774    41.0298 H      45 HOH   0.0000 
136 O       -6.2303    23.4168    46.9955 O.3    46 HOH   0.0000 
137 H1      -5.2703    23.4168    46.9955 H      46 HOH   0.0000 
138 H2      -6.5206    24.0639    47.6425 H      46 HOH   0.0000 
139 O       14.4302    21.2712    51.6351 O.3    47 HOH   0.0000 
140 H1      15.3902    21.2712    51.6351 H      47 HOH   0.0000 
141 H2      14.1399    21.9183    52.2821 H      47 HOH   0.0000 
142 O       20.6447    19.6150    29.5807 O.3    48 HOH   0.0000 
143 H1      21.6047    19.6150    29.5807 H      48 HOH   0.0000 
144 H2      20.3544    20.2620    30.2278 H      48 HOH   0.0000 
145 O       -0.2816    27.3960    52.7777 O.3    49 HOH   0.0000 
146 H1       0.6784    27.3960    52.7777 H      49 HOH   0.0000 
147 H2      -0.5719    28.0430    53.4247 H      49 HOH   0.0000 
148 O       -5.1636    -1.4399    15.8419 O.3    50 HOH   0.0000 
149 H1      -4.2036    -1.4399    15.8419 H      50 HOH   0.0000 
150 H2      -5.4538    -0.7929    16.4889 H      50 HOH   0.0000 
151 O       -7.6571    11.1187    12.0972 O.3    51 HOH   0.0000 
152 H1      -6.6971    11.1187    12.0972 H      51 HOH   0.0000 
153 H2      -7.9474    11.7658    12.7443 H      51 HOH   0.0000 
154 O       -4.5362    29.4791    38.5696 O.3    52 HOH   0.0000 
155 H1      -3.5762    29.4791    38.5696 H      52 HOH   0.0000 
156 H2      -4.8265    30.1261    39.2166 H      52 HOH   0.0000 
157 O       -7.6460    -8.9728    27.2459 O.3    53 HOH   0.0000 
158 H1      -6.6860    -8.9728    27.2459 H      53 HOH   0.0000 
159 H2      -7.9363    -8.3257    27.8930 H      53 HOH   0.0000 
160 O       -2.6826    35.4736    29.9407 O.3    54 HOH   0.0000 
161 H1      -1.7226    35.4736    29.9407 H      54 HOH   0.0000 
162 H2      -2.9729    36.1206    30.5878 H      54 HOH   0.0000 
163 O      -27.5496    14.9616    40.5740 O.3    55 HOH   0.0000 
164 H1     -26.5896    14.9616    40.5740 H      55 HOH   0.0000 
165 H2     -27.8399    15.6086    41.2210 H      55 HOH   0.0000 
166 O       -3.3146    12.3539    20.2999 O.3    56 HOH   0.0000 
167 H1      -2.3546    12.3539    20.2999 H      56 HOH   0.0000 
168 H2      -3.6048    13.0009    20.9469 H      56 HOH   0.0000 
169 O      -23.7719    16.0023    34.7218 O.3    57 HOH   0.0000 
170 H1     -22.8119    16.0023    34.7218 H      57 HOH   0.0000 
171 H2     -24.0621    16.6494    35.3688 H      57 HOH   0.0000 
172 O      -22.2065    14.6345    18.0265 O.3    58 HOH   0.0000 
173 H1     -21.2465    14.6345    18.0265 H      58 HOH   0.0000 
174 H2     -22.4968    15.2816    18.6735 H      58 HOH   0.0000 
175 O      -10.7170    30.5078    28.6936 O.3    59 HOH   0.0000 
176 H1      -9.7570    30.5078    28.6936 H      59 HOH   0.0000 
177 H2     -11.0073    31.1548    29.3406 H      59 HOH   0.0000 
178 O      -14.7810     5.7115    10.5033 O.3    60 HOH   0.0000 
179 H1     -13.8210     5.7115    10.5033 H      60 HOH   0.0000 
180 H2     -15.0713     6.3585    11.1503 H      60 HOH   0.0000 
181 O      -23.7103    12.0635    38.2402 O.3    61 HOH   0.0000 
182 H1     -22.7503    12.0635    38.2402 H      61 HOH   0.0000 
183 H2     -24.0005    12.7106    38.8872 H      61 HOH   0.0000 
184 O      -12.8506    27.5981    38.8037 O.3    62 HOH   0.0000 
185 H1     -11.8906    27.5981    38.8037 H      62 HOH   0.0000 
186 H2     -13.1409    28.2452    39.4508 H      62 HOH   0.0000 
187 O      -26.6915    -0.4968    37.0257 O.3    63 HOH   0.0000 
188 H1     -25.7315    -0.4968    37.0257 H      63 HOH   0.0000 
189 H2     -26.9817     0.1503    37.6728 H      63 HOH   0.0000 
190 O       11.3967    20.2699    22.0559 O.3    64 HOH   0.0000 
191 H1      12.3567    20.2699    22.0559 H      64 HOH   0.0000 
192 H2      11.1065    20.9169    22.7030 H      64 HOH   0.0000 
193 O       -3.9600    -4.5592    25.9118 O.3    65 HOH   0.0000 
194 H1      -3.0000    -4.5592    25.9118 H      65 HOH   0.0000 
195 H2      -4.2503    -3.9122    26.5589 H      65 HOH   0.0000 
196 O        5.6226    13.4453     9.5904 O.3    66 HOH   0.0000 
197 H1       6.5826    13.4453     9.5904 H      66 HOH   0.0000 
198 H2       5.3323    14.0924    10.2375 H      66 HOH   0.0000 
199 O       -9.3164    20.8400    52.4959 O.3    67 HOH   0.0000 
200 H1      -8.3564    20.8400    52.4959 H      67 HOH   0.0000 
201 H2      -9.6067    21.4870    53.1429 H      67 HOH   0.0000 
202 O      -28.8914    16.0643    27.6197 O.3    68 HOH   0.0000 
203 H1     -27.9314    16.0643    27.6197 H      68 HOH   0.0000 
204 H2     -29.1817    16.7114    28.2668 H      68 HOH   0.0000 
205 O      -20.4522     2.3118    30.1367 O.3    69 HOH   0.0000 
206 H1     -19.4922     2.3118    30.1367 H      69 HOH   0.0000 
207 H2     -20.7424     2.9588    30.7838 H      69 HOH   0.0000 
208 O      -15.7239    -2.5838    26.5481 O.3    70 HOH   0.0000 
209 H1     -14.7639    -2.5838    26.5481 H      70 HOH   0.0000 
210 H2     -16.0142    -1.9367    27.1952 H      70 HOH   0.0000 
211 O      -20.2318     4.4191    16.5304 O.3    71 HOH   0.0000 
212 H1     -19.2718     4.4191    16.5304 H      71 HOH   0.0000 
213 H2     -20.5220     5.0661    17.1774 H      71 HOH   0.0000 
214 O      -12.3805    11.8973    46.7464 O.3    72 HOH   0.0000 
215 H1     -11.4205    11.8973    46.7464 H      72 HOH   0.0000 
216 H2     -12.6708    12.5444    47.3934 H      72 HOH   0.0000 
217 O        4.4338    10.8859    10.4570 O.3    73 HOH   0.0000 
218 H1       5.3938    10.8859    10.4570 H      73 HOH   0.0000 
219 H2       4.1435    11.5330    11.1040 H      73 HOH   0.0000 
220 O        4.3845    17.4130    11.3536 O.3    74 HOH   0.0000 
221 H1       5.3445    17.4130    11.3536 H      74 HOH   0.0000 
222 H2       4.0942    18.0601    12.0007 H      74 HOH   0.0000 
223 O       -4.0182    12.0011    43.7711 O.3    75 HOH  -0.8340 
224 H1      -4.6874    11.6540    43.1812 H      75 HOH   0.4170 
225 H2      -4.3845    11.8802    44.6472 H      75 HOH   0.4170 
226 O       22.2223    22.0448    29.4879 O.3    76 HOH   0.0000 
227 H1      23.1823    22.0448    29.4879 H      76 HOH   0.0000 
228 H2      21.9320    22.6918    30.1349 H      76 HOH   0.0000 
229 O       -3.5262    12.3173    24.3900 O.3    77 HOH   0.0000 
230 H1      -2.5662    12.3173    24.3900 H      77 HOH   0.0000 
231 H2      -3.8165    12.9644    25.0371 H      77 HOH   0.0000 
232 O      -16.2526    30.0004    24.9900 O.3    78 HOH   0.0000 
233 H1     -15.2926    30.0004    24.9900 H      78 HOH   0.0000 
234 H2     -16.5429    30.6474    25.6370 H      78 HOH   0.0000 
235 O        2.1269    32.0068    23.5532 O.3    79 HOH   0.0000 
236 H1       3.0869    32.0068    23.5532 H      79 HOH   0.0000 
237 H2       1.8366    32.6539    24.2003 H      79 HOH   0.0000 
238 O      -12.2821     0.7933    35.5241 O.3    80 HOH   0.0000 
239 H1     -11.3221     0.7933    35.5241 H      80 HOH   0.0000 
240 H2     -12.5724     1.4404    36.1711 H      80 HOH   0.0000 
241 O       -6.9165    12.6303    44.3592 O.3    81 HOH  -0.8340 
242 H1      -6.9973    13.3439    44.9920 H      81 HOH   0.4170 
243 H2      -7.1035    13.0373    43.5133 H      81 HOH   0.4170 
244 O      -30.2776    13.2587    28.6576 O.3    82 HOH   0.0000 
245 H1     -29.3176    13.2587    28.6576 H      82 HOH   0.0000 
246 H2     -30.5679    13.9057    29.3046 H      82 HOH   0.0000 
247 O       -3.1987    17.3102    50.8966 O.3    83 HOH  -0.8340 
248 H1      -3.7850    17.3015    50.1400 H      83 HOH   0.4170 
249 H2      -3.7807    17.2280    51.6521 H      83 HOH   0.4170 
250 O       -2.9107    16.6501    12.4479 O.3    84 HOH   0.0000 
251 H1      -1.9507    16.6501    12.4479 H      84 HOH   0.0000 
252 H2      -3.2010    17.2972    13.0949 H      84 HOH   0.0000 
253 O        8.7818    32.6517    29.2247 O.3    85 HOH   0.0000 
254 H1       9.7418    32.6517    29.2247 H      85 HOH   0.0000 
255 H2       8.4915    33.2988    29.8718 H      85 HOH   0.0000 
256 O       -9.5319    29.1208    22.1422 O.3    86 HOH   0.0000 
257 H1      -8.5719    29.1208    22.1422 H      86 HOH   0.0000 
258 H2      -9.8221    29.7678    22.7892 H      86 HOH   0.0000 
259 O      -22.6691     9.3802    34.5763 O.3    87 HOH   0.0000 
260 H1     -21.7091     9.3802    34.5763 H      87 HOH   0.0000 
261 H2     -22.9594    10.0272    35.2233 H      87 HOH   0.0000 
262 O      -12.5439    24.3789    14.6319 O.3    88 HOH   0.0000 
263 H1     -11.5839    24.3789    14.6319 H      88 HOH   0.0000 
264 H2     -12.8342    25.0260    15.2790 H      88 HOH   0.0000 
265 O      -26.6679    18.9065    36.0223 O.3    89 HOH   0.0000 
266 H1     -25.7079    18.9065    36.0223 H      89 HOH   0.0000 
267 H2     -26.9581    19.5536    36.6693 H      89 HOH   0.0000 
268 O      -14.9944    25.9681    43.0069 O.3    90 HOH   0.0000 
269 H1     -14.0344    25.9681    43.0069 H      90 HOH   0.0000 
270 H2     -15.2847    26.6151    43.6540 H      90 HOH   0.0000 
271 O       -8.7836    29.5284    40.2315 O.3    91 HOH   0.0000 
272 H1      -7.8236    29.5284    40.2315 H      91 HOH   0.0000 
273 H2      -9.0739    30.1755    40.8785 H      91 HOH   0.0000 
274 O       -9.6016    -2.1326    30.9460 O.3    92 HOH   0.0000 
275 H1      -8.6416    -2.1326    30.9460 H      92 HOH   0.0000 
276 H2      -9.8919    -1.4856    31.5930 H      92 HOH   0.0000 
277 O       -4.8999     7.2506    34.1577 O.3    93 HOH   0.0000 
278 H1      -3.9399     7.2506    34.1577 H      93 HOH   0.0000 
279 H2      -5.1901     7.8976    34.8048 H      93 HOH   0.0000 
280 O       19.6411    16.4881    30.9133 O.3    94 HOH   0.0000 
281 H1      20.6011    16.4881    30.9133 H      94 HOH   0.0000 
282 H2      19.3508    17.1352    31.5603 H      94 HOH   0.0000 
283 O       17.4959    14.5858    33.7732 O.3    95 HOH   0.0000 
284 H1      18.4559    14.5858    33.7732 H      95 HOH   0.0000 
285 H2      17.2056    15.2329    34.4203 H      95 HOH   0.0000 
286 O       10.2195    31.9198    26.6574 O.3    96 HOH   0.0000 
287 H1      11.1795    31.9198    26.6574 H      96 HOH   0.0000 
288 H2       9.9292    32.5669    27.3044 H      96 HOH   0.0000 
289 O       -5.9783    -0.9701     9.3341 O.3    97 HOH   0.0000 
290 H1      -5.0183    -0.9701     9.3341 H      97 HOH   0.0000 
291 H2      -6.2685    -0.3230     9.9811 H      97 HOH   0.0000 
292 O       -6.2200     3.3377    36.4360 O.3    98 HOH   0.0000 
293 H1      -5.2600     3.3377    36.4360 H      98 HOH   0.0000 
294 H2      -6.5103     3.9847    37.0831 H      98 HOH   0.0000 
295 O        2.1790    33.2025    25.8105 O.3    99 HOH   0.0000 
296 H1       3.1390    33.2025    25.8105 H      99 HOH   0.0000 
297 H2       1.8887    33.8495    26.4575 H      99 HOH   0.0000 
298 O       16.3035    30.2442    54.3390 O.3   100 HOH   0.0000 
299 H1      17.2635    30.2442    54.3390 H     100 HOH   0.0000 
300 H2      16.0133    30.8913    54.9861 H     100 HOH   0.0000 
301 O        6.1149     5.8651    18.3082 O.3   101 HOH   0.0000 
302 H1       7.0749     5.8651    18.3082 H     101 HOH   0.0000 
303 H2       5.8246     6.5121    18.9552 H     101 HOH   0.0000 
304 O       15.9161    25.3974    52.7088 O.3   102 HOH   0.0000 
305 H1      16.8761    25.3974    52.7088 H     102 HOH   0.0000 
306 H2      15.6258    26.0445    53.3559 H     102 HOH   0.0000 
307 O        4.0487    10.2993    47.5888 O.3   103 HOH   0.0000 
308 H1       5.0087    10.2993    47.5888 H     103 HOH   0.0000 
309 H2       3.7584    10.9463    48.2358 H     103 HOH   0.0000 
310 O       -8.3334     5.6869    43.7325 O.3   104 HOH   0.0000 
311 H1      -7.3734     5.6869    43.7325 H     104 HOH   0.0000 
312 H2      -8.6236     6.3339    44.3796 H     104 HOH   0.0000 
313 O        7.5268     9.4766    13.8088 O.3   105 HOH   0.0000 
314 H1       8.4868     9.4766    13.8088 H     105 HOH   0.0000 
315 H2       7.2365    10.1237    14.4559 H     105 HOH   0.0000 
316 O      -18.7810     4.2966    37.6579 O.3   106 HOH   0.0000 
317 H1     -17.8210     4.2966    37.6579 H     106 HOH   0.0000 
318 H2     -19.0713     4.9437    38.3049 H     106 HOH   0.0000 
319 O        5.9949    20.3740    12.2729 O.3   107 HOH   0.0000 
320 H1       6.9549    20.3740    12.2729 H     107 HOH   0.0000 
321 H2       5.7046    21.0211    12.9200 H     107 HOH   0.0000 
322 O      -13.8205    28.5626    17.5397 O.3   108 HOH   0.0000 
323 H1     -12.8605    28.5626    17.5397 H     108 HOH   0.0000 
324 H2     -14.1108    29.2097    18.1868 H     108 HOH   0.0000 
325 O      -32.7609    26.0279    33.3077 O.3   109 HOH   0.0000 
326 H1     -31.8009    26.0279    33.3077 H     109 HOH   0.0000 
327 H2     -33.0512    26.6750    33.9548 H     109 HOH   0.0000 
328 O        2.7046    25.7186    55.2196 O.3   110 HOH   0.0000 
329 H1       3.6646    25.7186    55.2196 H     110 HOH   0.0000 
330 H2       2.4143    26.3656    55.8667 H     110 HOH   0.0000 
331 O        5.4586    34.5114    42.6727 O.3   111 HOH   0.0000 
332 H1       6.4186    34.5114    42.6727 H     111 HOH   0.0000 
333 H2       5.1684    35.1584    43.3198 H     111 HOH   0.0000 
334 O       -5.7667    33.6088    36.9273 O.3   112 HOH   0.0000 
335 H1      -4.8067    33.6088    36.9273 H     112 HOH   0.0000 
336 H2      -6.0569    34.2559    37.5744 H     112 HOH   0.0000 
337 O       15.3044    23.4553    49.1582 O.3   113 HOH   0.0000 
338 H1      16.2644    23.4553    49.1582 H     113 HOH   0.0000 
339 H2      15.0141    24.1023    49.8053 H     113 HOH   0.0000 
340 O        3.9844    17.3264    36.8599 O.3   114 HOH  -0.8340 
341 H1       3.1192    17.5167    36.4973 H     114 HOH   0.4170 
342 H2       3.9133    17.5597    37.7855 H     114 HOH   0.4170 
343 O        0.7153    12.9264    23.4558 O.3   115 HOH   0.0000 
344 H1       1.6753    12.9264    23.4558 H     115 HOH   0.0000 
345 H2       0.4250    13.5735    24.1029 H     115 HOH   0.0000 
346 O      -21.4428     3.9769    20.7044 O.3   116 HOH   0.0000 
347 H1     -20.4828     3.9769    20.7044 H     116 HOH   0.0000 
348 H2     -21.7331     4.6239    21.3514 H     116 HOH   0.0000 
349 O       -2.9676    31.1102    17.1781 O.3   117 HOH   0.0000 
350 H1      -2.0076    31.1102    17.1781 H     117 HOH   0.0000 
351 H2      -3.2579    31.7573    17.8251 H     117 HOH   0.0000 
352 O      -20.7555    26.0607    21.4137 O.3   118 HOH   0.0000 
353 H1     -19.7955    26.0607    21.4137 H     118 HOH   0.0000 
354 H2     -21.0458    26.7078    22.0607 H     118 HOH   0.0000 
355 O       -7.0708    29.3016    42.5903 O.3   119 HOH   0.0000 
356 H1      -6.1108    29.3016    42.5903 H     119 HOH   0.0000 
357 H2      -7.3611    29.9487    43.2373 H     119 HOH   0.0000 
358 O        4.6455    33.9741    56.9428 O.3   120 HOH   0.0000 
359 H1       5.6055    33.9741    56.9428 H     120 HOH   0.0000 
360 H2       4.3552    34.6212    57.5899 H     120 HOH   0.0000 
361 O      -26.9869    14.6377    45.1271 O.3   121 HOH   0.0000 
362 H1     -26.0269    14.6377    45.1271 H     121 HOH   0.0000 
363 H2     -27.2772    15.2847    45.7741 H     121 HOH   0.0000 
364 O       -8.9668    26.7714    49.0692 O.3   122 HOH   0.0000 
365 H1      -8.0068    26.7714    49.0692 H     122 HOH   0.0000 
366 H2      -9.2571    27.4184    49.7162 H     122 HOH   0.0000 
367 O      -21.3960     5.6991    34.5594 O.3   123 HOH   0.0000 
368 H1     -20.4360     5.6991    34.5594 H     123 HOH   0.0000 
369 H2     -21.6863     6.3461    35.2065 H     123 HOH   0.0000 
370 O      -26.7081    12.6039    35.3585 O.3   124 HOH   0.0000 
371 H1     -25.7481    12.6039    35.3585 H     124 HOH   0.0000 
372 H2     -26.9984    13.2509    36.0055 H     124 HOH   0.0000 
373 O        9.1505    33.9717    42.5953 O.3   125 HOH   0.0000 
374 H1      10.1105    33.9717    42.5953 H     125 HOH   0.0000 
375 H2       8.8602    34.6188    43.2423 H     125 HOH   0.0000 
376 O        5.2946    12.0871    41.9094 O.3   126 HOH  -0.8340 
377 H1       5.1650    12.0954    42.8577 H     126 HOH   0.4170 
378 H2       6.1487    11.6725    41.7875 H     126 HOH   0.4170 
379 O       -2.3706    21.2468    10.7093 O.3   127 HOH   0.0000 
380 H1      -1.4106    21.2468    10.7093 H     127 HOH   0.0000 
381 H2      -2.6609    21.8938    11.3563 H     127 HOH   0.0000 
382 O       -8.8438     0.2577    29.8546 O.3   128 HOH   0.0000 
383 H1      -7.8838     0.2577    29.8546 H     128 HOH   0.0000 
384 H2      -9.1341     0.9047    30.5016 H     128 HOH   0.0000 
385 O       13.9901    30.3565    34.2436 O.3   129 HOH   0.0000 
386 H1      14.9501    30.3565    34.2436 H     129 HOH   0.0000 
387 H2      13.6998    31.0036    34.8907 H     129 HOH   0.0000 
388 O       13.9720    32.8804    36.0718 O.3   130 HOH   0.0000 
389 H1      14.9320    32.8804    36.0718 H     130 HOH   0.0000 
390 H2      13.6818    33.5275    36.7188 H     130 HOH   0.0000 
391 O        9.2635    19.7506    26.2570 O.3   131 HOH   0.0000 
392 H1      10.2235    19.7506    26.2570 H     131 HOH   0.0000 
393 H2       8.9732    20.3976    26.9041 H     131 HOH   0.0000 
394 O      -26.0301    12.9419    40.2822 O.3   132 HOH   0.0000 
395 H1     -25.0701    12.9419    40.2822 H     132 HOH   0.0000 
396 H2     -26.3204    13.5889    40.9293 H     132 HOH   0.0000 
397 O       -5.8739    25.1295    50.4626 O.3   133 HOH   0.0000 
398 H1      -4.9139    25.1295    50.4626 H     133 HOH   0.0000 
399 H2      -6.1642    25.7765    51.1096 H     133 HOH   0.0000 
400 O        6.1842    18.3164    21.8911 O.3   134 HOH   0.0000 
401 H1       7.1442    18.3164    21.8911 H     134 HOH   0.0000 
402 H2       5.8939    18.9635    22.5382 H     134 HOH   0.0000 
403 O        0.6886    11.5866    34.7543 O.3   135 HOH   0.0000 
404 H1       1.6486    11.5866    34.7543 H     135 HOH   0.0000 
405 H2       0.3983    12.2336    35.4014 H     135 HOH   0.0000 
406 O      -12.0350    23.1050    12.2323 O.3   136 HOH   0.0000 
407 H1     -11.0750    23.1050    12.2323 H     136 HOH   0.0000 
408 H2     -12.3253    23.7521    12.8793 H     136 HOH   0.0000 
409 O        5.2301    13.7674    26.9422 O.3   137 HOH   0.0000 
410 H1       6.1901    13.7674    26.9422 H     137 HOH   0.0000 
411 H2       4.9399    14.4145    27.5892 H     137 HOH   0.0000 
412 O      -25.1112     3.2077    26.6376 O.3   138 HOH   0.0000 
413 H1     -24.1512     3.2077    26.6376 H     138 HOH   0.0000 
414 H2     -25.4015     3.8547    27.2846 H     138 HOH   0.0000 
415 O      -21.9177    15.9066    32.7144 O.3   139 HOH   0.0000 
416 H1     -20.9577    15.9066    32.7144 H     139 HOH   0.0000 
417 H2     -22.2080    16.5537    33.3614 H     139 HOH   0.0000 
418 O       -1.0361     3.0610    26.6692 O.3   140 HOH   0.0000 
419 H1      -0.0761     3.0610    26.6692 H     140 HOH   0.0000 
420 H2      -1.3264     3.7081    27.3163 H     140 HOH   0.0000 
421 O      -22.6094    11.8891    33.8858 O.3   141 HOH   0.0000 
422 H1     -21.6494    11.8891    33.8858 H     141 HOH   0.0000 
423 H2     -22.8996    12.5361    34.5329 H     141 HOH   0.0000 
424 O      -26.2230    17.1097    34.0892 O.3   142 HOH   0.0000 
425 H1     -25.2630    17.1097    34.0892 H     142 HOH   0.0000 
426 H2     -26.5133    17.7567    34.7363 H     142 HOH   0.0000 
427 O       -7.1771    -0.4085     7.1936 O.3   143 HOH   0.0000 
428 H1      -6.2171    -0.4085     7.1936 H     143 HOH   0.0000 
429 H2      -7.4674     0.2386     7.8407 H     143 HOH   0.0000 
430 O       13.3223    29.1365    31.9425 O.3   144 HOH   0.0000 
431 H1      14.2823    29.1365    31.9425 H     144 HOH   0.0000 
432 H2      13.0320    29.7835    32.5896 H     144 HOH   0.0000 
433 O      -24.1359    13.3417    35.5127 O.3   145 HOH   0.0000 
434 H1     -23.1759    13.3417    35.5127 H     145 HOH   0.0000 
435 H2     -24.4261    13.9887    36.1597 H     145 HOH   0.0000 
436 O        7.9704    13.4119    54.8897 O.3   146 HOH   0.0000 
437 H1       8.9304    13.4119    54.8897 H     146 HOH   0.0000 
438 H2       7.6801    14.0589    55.5368 H     146 HOH   0.0000 
439 O       13.4138    15.0382    27.1531 O.3   147 HOH   0.0000 
440 H1      14.3738    15.0382    27.1531 H     147 HOH   0.0000 
441 H2      13.1235    15.6852    27.8002 H     147 HOH   0.0000 
442 O       -7.1068     5.1539    34.0327 O.3   148 HOH   0.0000 
443 H1      -6.1468     5.1539    34.0327 H     148 HOH   0.0000 
444 H2      -7.3971     5.8009    34.6797 H     148 HOH   0.0000 
445 O      -23.9939    13.2486    51.4563 O.3   149 HOH   0.0000 
446 H1     -23.0339    13.2486    51.4563 H     149 HOH   0.0000 
447 H2     -24.2842    13.8956    52.1033 H     149 HOH   0.0000 
448 O        8.9719    18.3139    18.2873 O.3   150 HOH   0.0000 
449 H1       9.9319    18.3139    18.2873 H     150 HOH   0.0000 
450 H2       8.6817    18.9609    18.9343 H     150 HOH   0.0000 
451 O      -23.8842     9.6590    37.1843 O.3   151 HOH   0.0000 
452 H1     -22.9242     9.6590    37.1843 H     151 HOH   0.0000 
453 H2     -24.1745    10.3060    37.8314 H     151 HOH   0.0000 
454 O      -24.2305    20.1066    43.9130 O.3   152 HOH   0.0000 
455 H1     -23.2705    20.1066    43.9130 H     152 HOH   0.0000 
456 H2     -24.5207    20.7537    44.5601 H     152 HOH   0.0000 
457 O      -21.3625    13.3876    32.0752 O.3   153 HOH   0.0000 
458 H1     -20.4025    13.3876    32.0752 H     153 HOH   0.0000 
459 H2     -21.6528    14.0346    32.7223 H     153 HOH   0.0000 
460 O       -8.1611    -3.8918    10.3038 O.3   154 HOH   0.0000 
461 H1      -7.2011    -3.8918    10.3038 H     154 HOH   0.0000 
462 H2      -8.4513    -3.2448    10.9508 H     154 HOH   0.0000 
463 O       -1.9975     1.5546    17.5580 O.3   155 HOH   0.0000 
464 H1      -1.0375     1.5546    17.5580 H     155 HOH   0.0000 
465 H2      -2.2878     2.2016    18.2050 H     155 HOH   0.0000 
466 O       -7.8189    24.8173    15.4970 O.3   156 HOH   0.0000 
467 H1      -6.8589    24.8173    15.4970 H     156 HOH   0.0000 
468 H2      -8.1092    25.4644    16.1440 H     156 HOH   0.0000 
469 O      -24.8608    11.3656    42.3048 O.3   157 HOH   0.0000 
470 H1     -23.9008    11.3656    42.3048 H     157 HOH   0.0000 
471 H2     -25.1510    12.0126    42.9519 H     157 HOH   0.0000 
472 O       -3.5755    32.0563    38.6110 O.3   158 HOH   0.0000 
473 H1      -2.6155    32.0563    38.6110 H     158 HOH   0.0000 
474 H2      -3.8658    32.7033    39.2580 H     158 HOH   0.0000 
475 O      -18.1814     9.1190    14.9317 O.3   159 HOH   0.0000 
476 H1     -17.2214     9.1190    14.9317 H     159 HOH   0.0000 
477 H2     -18.4717     9.7660    15.5788 H     159 HOH   0.0000 
478 O       12.3179    35.2389    34.7547 O.3   160 HOH   0.0000 
479 H1      13.2779    35.2389    34.7547 H     160 HOH   0.0000 
480 H2      12.0276    35.8859    35.4017 H     160 HOH   0.0000 
481 O      -28.0217    15.1414    34.8211 O.3   161 HOH   0.0000 
482 H1     -27.0617    15.1414    34.8211 H     161 HOH   0.0000 
483 H2     -28.3120    15.7885    35.4681 H     161 HOH   0.0000 
484 O        2.2589    18.3390    35.2968 O.3   162 HOH  -0.8340 
485 H1       1.4684    17.9668    34.9061 H     162 HOH   0.4170 
486 H2       1.9479    19.0968    35.7921 H     162 HOH   0.4170 
487 O      -13.7914    13.5348    48.5340 O.3   163 HOH   0.0000 
488 H1     -12.8314    13.5348    48.5340 H     163 HOH   0.0000 
489 H2     -14.0816    14.1818    49.1810 H     163 HOH   0.0000 
490 O       11.2162    34.1069    47.2241 O.3   164 HOH   0.0000 
491 H1      12.1762    34.1069    47.2241 H     164 HOH   0.0000 
492 H2      10.9259    34.7540    47.8711 H     164 HOH   0.0000 
493 O       -5.6327    10.0905    10.6560 O.3   165 HOH   0.0000 
494 H1      -4.6727    10.0905    10.6560 H     165 HOH   0.0000 
495 H2      -5.9230    10.7376    11.3031 H     165 HOH   0.0000 
496 O       10.7568    14.9188    38.1486 O.3   166 HOH   0.0000 
497 H1      11.7168    14.9188    38.1486 H     166 HOH   0.0000 
498 H2      10.4665    15.5659    38.7956 H     166 HOH   0.0000 
499 O      -11.5782    29.7275    40.2014 O.3   167 HOH   0.0000 
500 H1     -10.6182    29.7275    40.2014 H     167 HOH   0.0000 
501 H2     -11.8684    30.3745    40.8484 H     167 HOH   0.0000 
502 O      -20.9620    21.0440    45.8091 O.3   168 HOH   0.0000 
503 H1     -20.0020    21.0440    45.8091 H     168 HOH   0.0000 
504 H2     -21.2523    21.6910    46.4561 H     168 HOH   0.0000 
505 O       -3.1445    19.6226    52.7238 O.3   169 HOH   0.0000 
506 H1      -2.1845    19.6226    52.7238 H     169 HOH   0.0000 
507 H2      -3.4347    20.2697    53.3709 H     169 HOH   0.0000 
508 O       13.5315    33.1862    52.8322 O.3   170 HOH   0.0000 
509 H1      14.4915    33.1862    52.8322 H     170 HOH   0.0000 
510 H2      13.2412    33.8332    53.4792 H     170 HOH   0.0000 
511 O       -6.9937    34.1055    32.0920 O.3   171 HOH   0.0000 
512 H1      -6.0337    34.1055    32.0920 H     171 HOH   0.0000 
513 H2      -7.2839    34.7525    32.7391 H     171 HOH   0.0000 
514 O      -12.5867    -0.0650    32.7702 O.3   172 HOH   0.0000 
515 H1     -11.6267    -0.0650    32.7702 H     172 HOH   0.0000 
516 H2     -12.8770     0.5821    33.4172 H     172 HOH   0.0000 
517 O      -34.6079    27.5739    41.2152 O.3   173 HOH   0.0000 
518 H1     -33.6479    27.5739    41.2152 H     173 HOH   0.0000 
519 H2     -34.8982    28.2209    41.8622 H     173 HOH   0.0000 
520 O       10.7738    18.9245    19.9965 O.3   174 HOH   0.0000 
521 H1      11.7338    18.9245    19.9965 H     174 HOH   0.0000 
522 H2      10.4836    19.5715    20.6435 H     174 HOH   0.0000 
523 O       -1.9727    25.9460    49.4853 O.3   175 HOH   0.0000 
524 H1      -1.0127    25.9460    49.4853 H     175 HOH   0.0000 
525 H2      -2.2630    26.5931    50.1324 H     175 HOH   0.0000 
526 O      -20.7915    14.4941    15.7951 O.3   176 HOH   0.0000 
527 H1     -19.8315    14.4941    15.7951 H     176 HOH   0.0000 
528 H2     -21.0818    15.1411    16.4421 H     176 HOH   0.0000 
529 O       12.0114    32.6082    30.6115 O.3   177 HOH   0.0000 
530 H1      12.9714    32.6082    30.6115 H     177 HOH   0.0000 
531 H2      11.7211    33.2552    31.2585 H     177 HOH   0.0000 
532 O       -9.7182    12.1108    47.0407 O.3   178 HOH   0.0000 
533 H1      -8.7582    12.1108    47.0407 H     178 HOH   0.0000 
534 H2     -10.0084    12.7579    47.6877 H     178 HOH   0.0000 
535 O      -28.4476    18.4436    38.2726 O.3   179 HOH   0.0000 
536 H1     -27.4876    18.4436    38.2726 H     179 HOH   0.0000 
537 H2     -28.7379    19.0907    38.9197 H     179 HOH   0.0000 
538 O       -9.3509    32.3158    27.2506 O.3   180 HOH   0.0000 
539 H1      -8.3909    32.3158    27.2506 H     180 HOH   0.0000 
540 H2      -9.6411    32.9629    27.8977 H     180 HOH   0.0000 
541 O      -28.3195     6.4460    31.6090 O.3   181 HOH   0.0000 
542 H1     -27.3595     6.4460    31.6090 H     181 HOH   0.0000 
543 H2     -28.6098     7.0930    32.2560 H     181 HOH   0.0000 
544 O       -8.6270    -6.3404    15.1907 O.3   182 HOH   0.0000 
545 H1      -7.6670    -6.3404    15.1907 H     182 HOH   0.0000 
546 H2      -8.9173    -5.6933    15.8378 H     182 HOH   0.0000 
547 O        5.8646    36.2901    33.0774 O.3   183 HOH   0.0000 
548 H1       6.8246    36.2901    33.0774 H     183 HOH   0.0000 
549 H2       5.5743    36.9371    33.7245 H     183 HOH   0.0000 
550 O       18.0575    30.4607    41.6216 O.3   184 HOH   0.0000 
551 H1      19.0175    30.4607    41.6216 H     184 HOH   0.0000 
552 H2      17.7672    31.1077    42.2686 H     184 HOH   0.0000 
553 O      -21.1696     3.7008    38.3138 O.3   185 HOH   0.0000 
554 H1     -20.2096     3.7008    38.3138 H     185 HOH   0.0000 
555 H2     -21.4599     4.3479    38.9608 H     185 HOH   0.0000 
556 O       -3.4980     7.2189    36.5522 O.3   186 HOH   0.0000 
557 H1      -2.5380     7.2189    36.5522 H     186 HOH   0.0000 
558 H2      -3.7883     7.8659    37.1992 H     186 HOH   0.0000 
559 O       -5.4786    -4.2417    15.0275 O.3   187 HOH   0.0000 
560 H1      -4.5186    -4.2417    15.0275 H     187 HOH   0.0000 
561 H2      -5.7689    -3.5947    15.6745 H     187 HOH   0.0000 
562 O       19.1994    28.0761    40.7762 O.3   188 HOH   0.0000 
563 H1      20.1594    28.0761    40.7762 H     188 HOH   0.0000 
564 H2      18.9091    28.7231    41.4233 H     188 HOH   0.0000 
565 O      -23.2882    26.9323    23.0261 O.3   189 HOH   0.0000 
566 H1     -22.3282    26.9323    23.0261 H     189 HOH   0.0000 
567 H2     -23.5785    27.5794    23.6732 H     189 HOH   0.0000 
568 O      -29.3592    21.9959    40.3598 O.3   190 HOH   0.0000 
569 H1     -28.3992    21.9959    40.3598 H     190 HOH   0.0000 
570 H2     -29.6495    22.6430    41.0068 H     190 HOH   0.0000 
571 O      -27.9731    23.0313    26.7322 O.3   191 HOH   0.0000 
572 H1     -27.0131    23.0313    26.7322 H     191 HOH   0.0000 
573 H2     -28.2634    23.6783    27.3792 H     191 HOH   0.0000 
574 O        8.7486    33.7712    25.2017 O.3   192 HOH   0.0000 
575 H1       9.7086    33.7712    25.2017 H     192 HOH   0.0000 
576 H2       8.4584    34.4182    25.8488 H     192 HOH   0.0000 
577 O      -24.5378    18.8015    22.9095 O.3   193 HOH   0.0000 
578 H1     -23.5778    18.8015    22.9095 H     193 HOH   0.0000 
579 H2     -24.8281    19.4486    23.5566 H     193 HOH   0.0000 
580 O       -1.6522    -2.6603    16.5127 O.3   194 HOH   0.0000 
581 H1      -0.6922    -2.6603    16.5127 H     194 HOH   0.0000 
582 H2      -1.9425    -2.0132    17.1597 H     194 HOH   0.0000 
583 O       -3.4967    -1.3908    13.6268 O.3   195 HOH   0.0000 
584 H1      -2.5367    -1.3908    13.6268 H     195 HOH   0.0000 
585 H2      -3.7869    -0.7438    14.2738 H     195 HOH   0.0000 
586 O      -25.0683    18.0503    47.5640 O.3   196 HOH   0.0000 
587 H1     -24.1083    18.0503    47.5640 H     196 HOH   0.0000 
588 H2     -25.3586    18.6973    48.2110 H     196 HOH   0.0000 
589 O      -27.6115    21.2294    31.8893 O.3   197 HOH   0.0000 
590 H1     -26.6515    21.2294    31.8893 H     197 HOH   0.0000 
591 H2     -27.9018    21.8765    32.5363 H     197 HOH   0.0000 
592 O      -20.9414     7.6538    13.4512 O.3   198 HOH   0.0000 
593 H1     -19.9814     7.6538    13.4512 H     198 HOH   0.0000 
594 H2     -21.2317     8.3009    14.0982 H     198 HOH   0.0000 
595 O      -24.6272     8.4528    42.3694 O.3   199 HOH   0.0000 
596 H1     -23.6672     8.4528    42.3694 H     199 HOH   0.0000 
597 H2     -24.9175     9.0999    43.0165 H     199 HOH   0.0000 
598 O        2.7077    14.1405    22.1631 O.3   200 HOH   0.0000 
599 H1       3.6677    14.1405    22.1631 H     200 HOH   0.0000 
600 H2       2.4174    14.7875    22.8101 H     200 HOH   0.0000 
601 O      -22.7618     5.7259    37.5509 O.3   201 HOH   0.0000 
602 H1     -21.8018     5.7259    37.5509 H     201 HOH   0.0000 
603 H2     -23.0521     6.3730    38.1979 H     201 HOH   0.0000 
604 O       -1.0080    33.7787    17.6857 O.3   202 HOH   0.0000 
605 H1      -0.0480    33.7787    17.6857 H     202 HOH   0.0000 
606 H2      -1.2982    34.4258    18.3328 H     202 HOH   0.0000 
607 O      -18.2724    18.9476    15.8337 O.3   203 HOH   0.0000 
608 H1     -17.3124    18.9476    15.8337 H     203 HOH   0.0000 
609 H2     -18.5627    19.5946    16.4808 H     203 HOH   0.0000 
610 O       -7.0075     3.6403    41.8232 O.3   204 HOH   0.0000 
611 H1      -6.0475     3.6403    41.8232 H     204 HOH   0.0000 
612 H2      -7.2978     4.2873    42.4702 H     204 HOH   0.0000 
613 O        1.1110    33.3246    21.4270 O.3   205 HOH   0.0000 
614 H1       2.0710    33.3246    21.4270 H     205 HOH   0.0000 
615 H2       0.8208    33.9716    22.0740 H     205 HOH   0.0000 
616 O       14.3086    37.1276    41.3564 O.3   206 HOH   0.0000 
617 H1      15.2686    37.1276    41.3564 H     206 HOH   0.0000 
618 H2      14.0183    37.7747    42.0034 H     206 HOH   0.0000 
619 O       10.9376    34.8065    44.5127 O.3   207 HOH   0.0000 
620 H1      11.8976    34.8065    44.5127 H     207 HOH   0.0000 
621 H2      10.6473    35.4535    45.1597 H     207 HOH   0.0000 
622 O        2.4291    15.7144    35.2803 O.3   208 HOH  -0.8340 
623 H1       2.5372    16.6374    35.0510 H     208 HOH   0.4170 
624 H2       3.1980    15.5074    35.8114 H     208 HOH   0.4170 
625 O       -5.0517     1.9483    29.2799 O.3   209 HOH   0.0000 
626 H1      -4.0917     1.9483    29.2799 H     209 HOH   0.0000 
627 H2      -5.3420     2.5954    29.9269 H     209 HOH   0.0000 
628 O       17.6211    10.3984    30.1562 O.3   210 HOH   0.0000 
629 H1      18.5811    10.3984    30.1562 H     210 HOH   0.0000 
630 H2      17.3308    11.0455    30.8033 H     210 HOH   0.0000 
631 O      -21.1031     4.2497    11.4057 O.3   211 HOH   0.0000 
632 H1     -20.1431     4.2497    11.4057 H     211 HOH   0.0000 
633 H2     -21.3934     4.8967    12.0527 H     211 HOH   0.0000 
634 O      -18.8106    14.1782    51.4347 O.3   212 HOH   0.0000 
635 H1     -17.8506    14.1782    51.4347 H     212 HOH   0.0000 
636 H2     -19.1009    14.8252    52.0818 H     212 HOH   0.0000 
637 O       -0.8749    29.5157    46.4489 O.3   213 HOH   0.0000 
638 H1       0.0851    29.5157    46.4489 H     213 HOH   0.0000 
639 H2      -1.1652    30.1627    47.0959 H     213 HOH   0.0000 
640 O      -12.8371    30.4575    33.4385 O.3   214 HOH   0.0000 
641 H1     -11.8771    30.4575    33.4385 H     214 HOH   0.0000 
642 H2     -13.1274    31.1045    34.0855 H     214 HOH   0.0000 
643 O        1.6441    12.5733    31.7031 O.3   215 HOH   0.0000 
644 H1       2.6041    12.5733    31.7031 H     215 HOH   0.0000 
645 H2       1.3538    13.2204    32.3502 H     215 HOH   0.0000 
646 O       12.8336    35.8922    54.2846 O.3   216 HOH   0.0000 
647 H1      13.7936    35.8922    54.2846 H     216 HOH   0.0000 
648 H2      12.5433    36.5392    54.9316 H     216 HOH   0.0000 
649 O       17.8796    19.4726    38.7634 O.3   217 HOH   0.0000 
650 H1      18.8396    19.4726    38.7634 H     217 HOH   0.0000 
651 H2      17.5893    20.1196    39.4105 H     217 HOH   0.0000 
652 O      -14.4773    16.9667    48.3518 O.3   218 HOH   0.0000 
653 H1     -13.5173    16.9667    48.3518 H     218 HOH   0.0000 
654 H2     -14.7676    17.6137    48.9989 H     218 HOH   0.0000 
655 O       -3.1146    14.6931    10.9793 O.3   219 HOH   0.0000 
656 H1      -2.1546    14.6931    10.9793 H     219 HOH   0.0000 
657 H2      -3.4049    15.3402    11.6264 H     219 HOH   0.0000 
658 O      -29.3305    16.0341    37.3905 O.3   220 HOH   0.0000 
659 H1     -28.3705    16.0341    37.3905 H     220 HOH   0.0000 
660 H2     -29.6208    16.6811    38.0375 H     220 HOH   0.0000 
661 O       -5.2175    12.7092    21.6963 O.3   221 HOH   0.0000 
662 H1      -4.2575    12.7092    21.6963 H     221 HOH   0.0000 
663 H2      -5.5078    13.3563    22.3433 H     221 HOH   0.0000 
664 O      -13.3768     2.6555    38.8706 O.3   222 HOH   0.0000 
665 H1     -12.4168     2.6555    38.8706 H     222 HOH   0.0000 
666 H2     -13.6671     3.3026    39.5177 H     222 HOH   0.0000 
667 O        1.1052    12.0547    47.5674 O.3   223 HOH  -0.8340 
668 H1       0.4247    12.6551    47.8719 H     223 HOH   0.4170 
669 H2       1.1885    11.4102    48.2702 H     223 HOH   0.4170 
670 O       15.1463    34.8546    46.4993 O.3   224 HOH   0.0000 
671 H1      16.1063    34.8546    46.4993 H     224 HOH   0.0000 
672 H2      14.8561    35.5017    47.1463 H     224 HOH   0.0000 
673 O       -4.1140     4.1662     8.2863 O.3   225 HOH   0.0000 
674 H1      -3.1540     4.1662     8.2863 H     225 HOH   0.0000 
675 H2      -4.4043     4.8133     8.9333 H     225 HOH   0.0000 
676 O       -8.8127    -4.4514     7.8721 O.3   226 HOH   0.0000 
677 H1      -7.8527    -4.4514     7.8721 H     226 HOH   0.0000 
678 H2      -9.1030    -3.8043     8.5192 H     226 HOH   0.0000 
679 O      -27.1503    12.6767    43.3828 O.3   227 HOH   0.0000 
680 H1     -26.1903    12.6767    43.3828 H     227 HOH   0.0000 
681 H2     -27.4406    13.3237    44.0299 H     227 HOH   0.0000 
682 O        9.0613    35.1542    30.5180 O.3   228 HOH   0.0000 
683 H1      10.0213    35.1542    30.5180 H     228 HOH   0.0000 
684 H2       8.7710    35.8012    31.1651 H     228 HOH   0.0000 
685 O      -11.2349    26.4633    45.9659 O.3   229 HOH   0.0000 
686 H1     -10.2749    26.4633    45.9659 H     229 HOH   0.0000 
687 H2     -11.5252    27.1103    46.6129 H     229 HOH   0.0000 
688 O       -3.5824    31.1323    41.5724 O.3   230 HOH   0.0000 
689 H1      -2.6224    31.1323    41.5724 H     230 HOH   0.0000 
690 H2      -3.8727    31.7793    42.2195 H     230 HOH   0.0000 
691 O       -4.6255    -8.2434    26.5624 O.3   231 HOH   0.0000 
692 H1      -3.6655    -8.2434    26.5624 H     231 HOH   0.0000 
693 H2      -4.9157    -7.5964    27.2095 H     231 HOH   0.0000 
694 O      -27.2528    18.4648    31.7278 O.3   232 HOH   0.0000 
695 H1     -26.2928    18.4648    31.7278 H     232 HOH   0.0000 
696 H2     -27.5431    19.1118    32.3748 H     232 HOH   0.0000 
697 O       16.7814    31.8766    51.1331 O.3   233 HOH   0.0000 
698 H1      17.7414    31.8766    51.1331 H     233 HOH   0.0000 
699 H2      16.4911    32.5236    51.7801 H     233 HOH   0.0000 
700 O      -27.8293    19.4871    42.1217 O.3   234 HOH   0.0000 
701 H1     -26.8693    19.4871    42.1217 H     234 HOH   0.0000 
702 H2     -28.1196    20.1342    42.7688 H     234 HOH   0.0000 
703 O      -15.0809    28.8525    39.4287 O.3   235 HOH   0.0000 
704 H1     -14.1209    28.8525    39.4287 H     235 HOH   0.0000 
705 H2     -15.3712    29.4996    40.0758 H     235 HOH   0.0000 
706 O       -0.5726    19.2863    53.8692 O.3   236 HOH   0.0000 
707 H1       0.3874    19.2863    53.8692 H     236 HOH   0.0000 
708 H2      -0.8629    19.9334    54.5162 H     236 HOH   0.0000 
709 O      -15.3938     9.9115    50.1078 O.3   237 HOH   0.0000 
710 H1     -14.4338     9.9115    50.1078 H     237 HOH   0.0000 
711 H2     -15.6841    10.5585    50.7549 H     237 HOH   0.0000 
@<TRIPOS>BOND
  1   1   2  1   
  2   1   3  1   
  3   4   5  1   
  4   4   6  1   
  5   7   8  1   
  6   7   9  1   
  7  10  11  1   
  8  10  12  1   
  9  13  14  1   
 10  13  15  1   
 11  16  17  1   
 12  16  18  1   
 13  19  20  1   
 14  19  21  1   
 15  22  23  1   
 16  22  24  1   
 17  25  26  1   
 18  25  27  1   
 19  28  29  1   
 20  28  30  1   
 21  31  32  1   
 22  31  33  1   
 23  34  35  1   
 24  34  36  1   
 25  37  38  1   
 26  37  39  1   
 27  40  41  1   
 28  40  42  1   
 29  43  44  1   
 30  43  45  1   
 31  46  47  1   
 32  46  48  1   
 33  49  50  1   
 34  49  51  1   
 35  52  53  1   
 36  52  54  1   
 37  55  56  1   
 38  55  57  1   
 39  58  59  1   
 40  58  60  1   
 41  61  62  1   
 42  61  63  1   
 43  64  65  1   
 44  64  66  1   
 45  67  68  1   
 46  67  69  1   
 47  70  71  1   
 48  70  72  1   
 49  73  74  1   
 50  73  75  1   
 51  76  77  1   
 52  76  78  1   
 53  79  80  1   
 54  79  81  1   
 55  82  83  1   
 56  82  84  1   
 57  85  86  1   
 58  85  87  1   
 59  88  89  1   
 60  88  90  1   
 61  91  92  1   
 62  91  93  1   
 63  94  95  1   
 64  94  96  1   
 65  97  98  1   
 66  97  99  1   
 67 100 101  1   
 68 100 102  1   
 69 103 104  1   
 70 103 105  1   
 71 106 107  1   
 72 106 108  1   
 73 109 110  1   
 74 109 111  1   
 75 112 113  1   
 76 112 114  1   
 77 115 116  1   
 78 115 117  1   
 79 118 119  1   
 80 118 120  1   
 81 121 122  1   
 82 121 123  1   
 83 124 125  1   
 84 124 126  1   
 85 127 128  1   
 86 127 129  1   
 87 130 131  1   
 88 130 132  1   
 89 133 134  1   
 90 133 135  1   
 91 136 137  1   
 92 136 138  1   
 93 139 140  1   
 94 139 141  1   
 95 142 143  1   
 96 142 144  1   
 97 145 146  1   
 98 145 147  1   
 99 148 149  1   
100 148 150  1   
101 151 152  1   
102 151 153  1   
103 154 155  1   
104 154 156  1   
105 157 158  1   
106 157 159  1   
107 160 161  1   
108 160 162  1   
109 163 164  1   
110 163 165  1   
111 166 167  1   
112 166 168  1   
113 169 170  1   
114 169 171  1   
115 172 173  1   
116 172 174  1   
117 175 176  1   
118 175 177  1   
119 178 179  1   
120 178 180  1   
121 181 182  1   
122 181 183  1   
123 184 185  1   
124 184 186  1   
125 187 188  1   
126 187 189  1   
127 190 191  1   
128 190 192  1   
129 193 194  1   
130 193 195  1   
131 196 197  1   
132 196 198  1   
133 199 200  1   
134 199 201  1   
135 202 203  1   
136 202 204  1   
137 205 206  1   
138 205 207  1   
139 208 209  1   
140 208 210  1   
141 211 212  1   
142 211 213  1   
143 214 215  1   
144 214 216  1   
145 217 218  1   
146 217 219  1   
147 220 221  1   
148 220 222  1   
149 223 224  1   
150 223 225  1   
151 226 227  1   
152 226 228  1   
153 229 230  1   
154 229 231  1   
155 232 233  1   
156 232 234  1   
157 235 236  1   
158 235 237  1   
159 238 239  1   
160 238 240  1   
161 241 242  1   
162 241 243  1   
163 244 245  1   
164 244 246  1   
165 247 248  1   
166 247 249  1   
167 250 251  1   
168 250 252  1   
169 253 254  1   
170 253 255  1   
171 256 257  1   
172 256 258  1   
173 259 260  1   
174 259 261  1   
175 262 263  1   
176 262 264  1   
177 265 266  1   
178 265 267  1   
179 268 269  1   
180 268 270  1   
181 271 272  1   
182 271 273  1   
183 274 275  1   
184 274 276  1   
185 277 278  1   
186 277 279  1   
187 280 281  1   
188 280 282  1   
189 283 284  1   
190 283 285  1   
191 286 287  1   
192 286 288  1   
193 289 290  1   
194 289 291  1   
195 292 293  1   
196 292 294  1   
197 295 296  1   
198 295 297  1   
199 298 299  1   
200 298 300  1   
201 301 302  1   
202 301 303  1   
203 304 305  1   
204 304 306  1   
205 307 308  1   
206 307 309  1   
207 310 311  1   
208 310 312  1   
209 313 314  1   
210 313 315  1   
211 316 317  1   
212 316 318  1   
213 319 320  1   
214 319 321  1   
215 322 323  1   
216 322 324  1   
217 325 326  1   
218 325 327  1   
219 328 329  1   
220 328 330  1   
221 331 332  1   
222 331 333  1   
223 334 335  1   
224 334 336  1   
225 337 338  1   
226 337 339  1   
227 340 341  1   
228 340 342  1   
229 343 344  1   
230 343 345  1   
231 346 347  1   
232 346 348  1   
233 349 350  1   
234 349 351  1   
235 352 353  1   
236 352 354  1   
237 355 356  1   
238 355 357  1   
239 358 359  1   
240 358 360  1   
241 361 362  1   
242 361 363  1   
243 364 365  1   
244 364 366  1   
245 367 368  1   
246 367 369  1   
247 370 371  1   
248 370 372  1   
249 373 374  1   
250 373 375  1   
251 376 377  1   
252 376 378  1   
253 379 380  1   
254 379 381  1   
255 382 383  1   
256 382 384  1   
257 385 386  1   
258 385 387  1   
259 388 389  1   
260 388 390  1   
261 391 392  1   
262 391 393  1   
263 394 395  1   
264 394 396  1   
265 397 398  1   
266 397 399  1   
267 400 401  1   
268 400 402  1   
269 403 404  1   
270 403 405  1   
271 406 407  1   
272 406 408  1   
273 409 410  1   
274 409 411  1   
275 412 413  1   
276 412 414  1   
277 415 416  1   
278 415 417  1   
279 418 419  1   
280 418 420  1   
281 421 422  1   
282 421 423  1   
283 424 425  1   
284 424 426  1   
285 427 428  1   
286 427 429  1   
287 430 431  1   
288 430 432  1   
289 433 434  1   
290 433 435  1   
291 436 437  1   
292 436 438  1   
293 439 440  1   
294 439 441  1   
295 442 443  1   
296 442 444  1   
297 445 446  1   
298 445 447  1   
299 448 449  1   
300 448 450  1   
301 451 452  1   
302 451 453  1   
303 454 455  1   
304 454 456  1   
305 457 458  1   
306 457 459  1   
307 460 461  1   
308 460 462  1   
309 463 464  1   
310 463 465  1   
311 466 467  1   
312 466 468  1   
313 469 470  1   
314 469 471  1   
315 472 473  1   
316 472 474  1   
317 475 476  1   
318 475 477  1   
319 478 479  1   
320 478 480  1   
321 481 482  1   
322 481 483  1   
323 484 485  1   
324 484 486  1   
325 487 488  1   
326 487 489  1   
327 490 491  1   
328 490 492  1   
329 493 494  1   
330 493 495  1   
331 496 497  1   
332 496 498  1   
333 499 500  1   
334 499 501  1   
335 502 503  1   
336 502 504  1   
337 505 506  1   
338 505 507  1   
339 508 509  1   
340 508 510  1   
341 511 512  1   
342 511 513  1   
343 514 515  1   
344 514 516  1   
345 517 518  1   
346 517 519  1   
347 520 521  1   
348 520 522  1   
349 523 524  1   
350 523 525  1   
351 526 527  1   
352 526 528  1   
353 529 530  1   
354 529 531  1   
355 532 533  1   
356 532 534  1   
357 535 536  1   
358 535 537  1   
359 538 539  1   
360 538 540  1   
361 541 542  1   
362 541 543  1   
363 544 545  1   
364 544 546  1   
365 547 548  1   
366 547 549  1   
367 550 551  1   
368 550 552  1   
369 553 554  1   
370 553 555  1   
371 556 557  1   
372 556 558  1   
373 559 560  1   
374 559 561  1   
375 562 563  1   
376 562 564  1   
377 565 566  1   
378 565 567  1   
379 568 569  1   
380 568 570  1   
381 571 572  1   
382 571 573  1   
383 574 575  1   
384 574 576  1   
385 577 578  1   
386 577 579  1   
387 580 581  1   
388 580 582  1   
389 583 584  1   
390 583 585  1   
391 586 587  1   
392 586 588  1   
393 589 590  1   
394 589 591  1   
395 592 593  1   
396 592 594  1   
397 595 596  1   
398 595 597  1   
399 598 599  1   
400 598 600  1   
401 601 602  1   
402 601 603  1   
403 604 605  1   
404 604 606  1   
405 607 608  1   
406 607 609  1   
407 610 611  1   
408 610 612  1   
409 613 614  1   
410 613 615  1   
411 616 617  1   
412 616 618  1   
413 619 620  1   
414 619 621  1   
415 622 623  1   
416 622 624  1   
417 625 626  1   
418 625 627  1   
419 628 629  1   
420 628 630  1   
421 631 632  1   
422 631 633  1   
423 634 635  1   
424 634 636  1   
425 637 638  1   
426 637 639  1   
427 640 641  1   
428 640 642  1   
429 643 644  1   
430 643 645  1   
431 646 647  1   
432 646 648  1   
433 649 650  1   
434 649 651  1   
435 652 653  1   
436 652 654  1   
437 655 656  1   
438 655 657  1   
439 658 659  1   
440 658 660  1   
441 661 662  1   
442 661 663  1   
443 664 665  1   
444 664 666  1   
445 667 668  1   
446 667 669  1   
447 670 671  1   
448 670 672  1   
449 673 674  1   
450 673 675  1   
451 676 677  1   
452 676 678  1   
453 679 680  1   
454 679 681  1   
455 682 683  1   
456 682 684  1   
457 685 686  1   
458 685 687  1   
459 688 689  1   
460 688 690  1   
461 691 692  1   
462 691 693  1   
463 694 695  1   
464 694 696  1   
465 697 698  1   
466 697 699  1   
467 700 701  1   
468 700 702  1   
469 703 704  1   
470 703 705  1   
471 706 707  1   
472 706 708  1   
473 709 710  1   
474 709 711  1   
@<TRIPOS>SUBSTRUCTURE
  1 HOH   1 GROUP 4 A **** 0
  2 HOH   4 GROUP 4 A **** 0
  3 HOH   7 GROUP 4 A **** 0
  4 HOH  10 GROUP 4 A **** 0
  5 HOH  13 GROUP 4 A **** 0
  6 HOH  16 GROUP 4 A **** 0
  7 HOH  19 GROUP 4 A **** 0
  8 HOH  22 GROUP 4 A **** 0
  9 HOH  25 GROUP 4 A **** 0
 10 HOH  28 GROUP 4 A **** 0
 11 HOH  31 GROUP 4 A **** 0
 12 HOH  34 GROUP 4 A **** 0
 13 HOH  37 GROUP 4 A **** 0
 14 HOH  40 GROUP 4 A **** 0
 15 HOH  43 GROUP 4 A **** 0
 16 HOH  46 GROUP 4 A **** 0
 17 HOH  49 GROUP 4 A **** 0
 18 HOH  52 GROUP 4 A **** 0
 19 HOH  55 GROUP 4 A **** 0
 20 HOH  58 GROUP 4 A **** 0
 21 HOH  61 GROUP 4 A **** 0
 22 HOH  64 GROUP 4 A **** 0
 23 HOH  67 GROUP 4 A **** 0
 24 HOH  70 GROUP 4 A **** 0
 25 HOH  73 GROUP 4 A **** 0
 26 HOH  76 GROUP 4 A **** 0
 27 HOH  79 GROUP 4 A **** 0
 28 HOH  82 GROUP 4 A **** 0
 29 HOH  85 GROUP 4 A **** 0
 30 HOH  88 GROUP 4 A **** 0
 31 HOH  91 GROUP 4 A **** 0
 32 HOH  94 GROUP 4 A **** 0
 33 HOH  97 GROUP 4 A **** 0
 34 HOH 100 GROUP 4 A **** 0
 35 HOH 103 GROUP 4 A **** 0
 36 HOH 106 GROUP 4 A **** 0
 37 HOH 109 GROUP 4 A **** 0
 38 HOH 112 GROUP 4 A **** 0
 39 HOH 115 GROUP 4 A **** 0
 40 HOH 118 GROUP 4 A **** 0
 41 HOH 121 GROUP 4 A **** 0
 42 HOH 124 GROUP 4 A **** 0
 43 HOH 127 GROUP 4 A **** 0
 44 HOH 130 GROUP 4 A **** 0
 45 HOH 133 GROUP 4 A **** 0
 46 HOH 136 GROUP 4 A **** 0
 47 HOH 139 GROUP 4 A **** 0
 48 HOH 142 GROUP 4 A **** 0
 49 HOH 145 GROUP 4 A **** 0
 50 HOH 148 GROUP 4 A **** 0
 51 HOH 151 GROUP 4 A **** 0
 52 HOH 154 GROUP 4 A **** 0
 53 HOH 157 GROUP 4 A **** 0
 54 HOH 160 GROUP 4 A **** 0
 55 HOH 163 GROUP 4 A **** 0
 56 HOH 166 GROUP 4 A **** 0
 57 HOH 169 GROUP 4 A **** 0
 58 HOH 172 GROUP 4 A **** 0
 59 HOH 175 GROUP 4 A **** 0
 60 HOH 178 GROUP 4 A **** 0
 61 HOH 181 GROUP 4 A **** 0
 62 HOH 184 GROUP 4 A **** 0
 63 HOH 187 GROUP 4 A **** 0
 64 HOH 190 GROUP 4 A **** 0
 65 HOH 193 GROUP 4 A **** 0
 66 HOH 196 GROUP 4 A **** 0
 67 HOH 199 GROUP 4 A **** 0
 68 HOH 202 GROUP 4 A **** 0
 69 HOH 205 GROUP 4 A **** 0
 70 HOH 208 GROUP 4 A **** 0
 71 HOH 211 GROUP 4 A **** 0
 72 HOH 214 GROUP 4 A **** 0
 73 HOH 217 GROUP 4 A **** 0
 74 HOH 220 GROUP 4 A **** 0
 75 HOH 223 GROUP 4 A **** 0
 76 HOH 226 GROUP 4 A **** 0
 77 HOH 229 GROUP 4 A **** 0
 78 HOH 232 GROUP 4 A **** 0
 79 HOH 235 GROUP 4 A **** 0
 80 HOH 238 GROUP 4 A **** 0
 81 HOH 241 GROUP 4 A **** 0
 82 HOH 244 GROUP 4 A **** 0
 83 HOH 247 GROUP 4 A **** 0
 84 HOH 250 GROUP 4 A **** 0
 85 HOH 253 GROUP 4 A **** 0
 86 HOH 256 GROUP 4 A **** 0
 87 HOH 259 GROUP 4 A **** 0
 88 HOH 262 GROUP 4 A **** 0
 89 HOH 265 GROUP 4 A **** 0
 90 HOH 268 GROUP 4 A **** 0
 91 HOH 271 GROUP 4 A **** 0
 92 HOH 274 GROUP 4 A **** 0
 93 HOH 277 GROUP 4 A **** 0
 94 HOH 280 GROUP 4 A **** 0
 95 HOH 283 GROUP 4 A **** 0
 96 HOH 286 GROUP 4 A **** 0
 97 HOH 289 GROUP 4 A **** 0
 98 HOH 292 GROUP 4 A **** 0
 99 HOH 295 GROUP 4 A **** 0
100 HOH 298 GROUP 4 A **** 0
101 HOH 301 GROUP 4 A **** 0
102 HOH 304 GROUP 4 A **** 0
103 HOH 307 GROUP 4 A **** 0
104 HOH 310 GROUP 4 A **** 0
105 HOH 313 GROUP 4 A **** 0
106 HOH 316 GROUP 4 A **** 0
107 HOH 319 GROUP 4 A **** 0
108 HOH 322 GROUP 4 A **** 0
109 HOH 325 GROUP 4 A **** 0
110 HOH 328 GROUP 4 A **** 0
111 HOH 331 GROUP 4 A **** 0
112 HOH 334 GROUP 4 A **** 0
113 HOH 337 GROUP 4 A **** 0
114 HOH 340 GROUP 4 A **** 0
115 HOH 343 GROUP 4 A **** 0
116 HOH 346 GROUP 4 A **** 0
117 HOH 349 GROUP 4 A **** 0
118 HOH 352 GROUP 4 A **** 0
119 HOH 355 GROUP 4 A **** 0
120 HOH 358 GROUP 4 A **** 0
121 HOH 361 GROUP 4 A **** 0
122 HOH 364 GROUP 4 A **** 0
123 HOH 367 GROUP 4 A **** 0
124 HOH 370 GROUP 4 A **** 0
125 HOH 373 GROUP 4 A **** 0
126 HOH 376 GROUP 4 A **** 0
127 HOH 379 GROUP 4 A **** 0
128 HOH 382 GROUP 4 A **** 0
129 HOH 385 GROUP 4 A **** 0
130 HOH 388 GROUP 4 A **** 0
131 HOH 391 GROUP 4 A **** 0
132 HOH 394 GROUP 4 A **** 0
133 HOH 397 GROUP 4 A **** 0
134 HOH 400 GROUP 4 A **** 0
135 HOH 403 GROUP 4 A **** 0
136 HOH 406 GROUP 4 A **** 0
137 HOH 409 GROUP 4 A **** 0
138 HOH 412 GROUP 4 A **** 0
139 HOH 415 GROUP 4 A **** 0
140 HOH 418 GROUP 4 A **** 0
141 HOH 421 GROUP 4 A **** 0
142 HOH 424 GROUP 4 A **** 0
143 HOH 427 GROUP 4 A **** 0
144 HOH 430 GROUP 4 A **** 0
145 HOH 433 GROUP 4 A **** 0
146 HOH 436 GROUP 4 A **** 0
147 HOH 439 GROUP 4 A **** 0
148 HOH 442 GROUP 4 A **** 0
149 HOH 445 GROUP 4 A **** 0
150 HOH 448 GROUP 4 A **** 0
151 HOH 451 GROUP 4 A **** 0
152 HOH 454 GROUP 4 A **** 0
153 HOH 457 GROUP 4 A **** 0
154 HOH 460 GROUP 4 A **** 0
155 HOH 463 GROUP 4 A **** 0
156 HOH 466 GROUP 4 A **** 0
157 HOH 469 GROUP 4 A **** 0
158 HOH 472 GROUP 4 A **** 0
159 HOH 475 GROUP 4 A **** 0
160 HOH 478 GROUP 4 A **** 0
161 HOH 481 GROUP 4 A **** 0
162 HOH 484 GROUP 4 A **** 0
163 HOH 487 GROUP 4 A **** 0
164 HOH 490 GROUP 4 A **** 0
165 HOH 493 GROUP 4 A **** 0
166 HOH 496 GROUP 4 A **** 0
167 HOH 499 GROUP 4 A **** 0
168 HOH 502 GROUP 4 A **** 0
169 HOH 505 GROUP 4 A **** 0
170 HOH 508 GROUP 4 A **** 0
171 HOH 511 GROUP 4 A **** 0
172 HOH 514 GROUP 4 A **** 0
173 HOH 517 GROUP 4 A **** 0
174 HOH 520 GROUP 4 A **** 0
175 HOH 523 GROUP 4 A **** 0
176 HOH 526 GROUP 4 A **** 0
177 HOH 529 GROUP 4 A **** 0
178 HOH 532 GROUP 4 A **** 0
179 HOH 535 GROUP 4 A **** 0
180 HOH 538 GROUP 4 A **** 0
181 HOH 541 GROUP 4 A **** 0
182 HOH 544 GROUP 4 A **** 0
183 HOH 547 GROUP 4 A **** 0
184 HOH 550 GROUP 4 A **** 0
185 HOH 553 GROUP 4 A **** 0
186 HOH 556 GROUP 4 A **** 0
187 HOH 559 GROUP 4 A **** 0
188 HOH 562 GROUP 4 A **** 0
189 HOH 565 GROUP 4 A **** 0
190 HOH 568 GROUP 4 A **** 0
191 HOH 571 GROUP 4 A **** 0
192 HOH 574 GROUP 4 A **** 0
193 HOH 577 GROUP 4 A **** 0
194 HOH 580 GROUP 4 A **** 0
195 HOH 583 GROUP 4 A **** 0
196 HOH 586 GROUP 4 A **** 0
197 HOH 589 GROUP 4 A **** 0
198 HOH 592 GROUP 4 A **** 0
199 HOH 595 GROUP 4 A **** 0
200 HOH 598 GROUP 4 A **** 0
201 HOH 601 GROUP 4 A **** 0
202 HOH 604 GROUP 4 A **** 0
203 HOH 607 GROUP 4 A **** 0
204 HOH 610 GROUP 4 A **** 0
205 HOH 613 GROUP 4 A **** 0
206 HOH 616 GROUP 4 A **** 0
207 HOH 619 GROUP 4 A **** 0
208 HOH 622 GROUP 4 A **** 0
209 HOH 625 GROUP 4 A **** 0
210 HOH 628 GROUP 4 A **** 0
211 HOH 631 GROUP 4 A **** 0
212 HOH 634 GROUP 4 A **** 0
213 HOH 637 GROUP 4 A **** 0
214 HOH 640 GROUP 4 A **** 0
215 HOH 643 GROUP 4 A **** 0
216 HOH 646 GROUP 4 A **** 0
217 HOH 649 GROUP 4 A **** 0
218 HOH 652 GROUP 4 A **** 0
219 HOH 655 GROUP 4 A **** 0
220 HOH 658 GROUP 4 A **** 0
221 HOH 661 GROUP 4 A **** 0
222 HOH 664 GROUP 4 A **** 0
223 HOH 667 GROUP 4 A **** 0
224 HOH 670 GROUP 4 A **** 0
225 HOH 673 GROUP 4 A **** 0
226 HOH 676 GROUP 4 A **** 0
227 HOH 679 GROUP 4 A **** 0
228 HOH 682 GROUP 4 A **** 0
229 HOH 685 GROUP 4 A **** 0
230 HOH 688 GROUP 4 A **** 0
231 HOH 691 GROUP 4 A **** 0
232 HOH 694 GROUP 4 A **** 0
233 HOH 697 GROUP 4 A **** 0
234 HOH 700 GROUP 4 A **** 0
235 HOH 703 GROUP 4 A **** 0
236 HOH 706 GROUP 4 A **** 0
237 HOH 709 GROUP 4 A **** 0

# MOE 2012.10 (io_trps.svl 2012.10)
