@<TRIPOS>MOLECULE
2g2f.B
46 48 1 0 0 
SMALL
USER_CHARGES


@<TRIPOS>ATOM
  1 PG       2.0340     9.3194    37.6069 P.3   1 AGS   1.4909 
  2 S1G      0.5289     9.2464    36.4574 S.2   1 AGS  -0.6773 
  3 O2G      2.1957     7.9137    38.2790 O.3   1 AGS  -0.7712 
  4 H2G      2.3176     7.2692    37.5781 H     1 AGS   0.5000 
  5 O3G      3.3036     9.8668    36.9901 O.3   1 AGS  -0.7712 
  6 H3G      3.5452     9.2893    36.2623 H     1 AGS   0.5000 
  7 PB       1.5201    11.9590    38.4841 P.3   1 AGS   1.5136 
  8 O1B      1.0339    12.1669    36.9688 O.2   1 AGS  -0.7000 
  9 O2B      0.4297    12.4004    39.4742 O.3   1 AGS  -0.7712 
 10 H2B     -0.3145    11.8026    39.3718 H     1 AGS   0.5000 
 11 O3B      1.8254    10.4302    38.7835 O.3   1 AGS  -0.5424 
 12 PA       3.4448    13.9895    39.7281 P.3   1 AGS   1.5136 
 13 O1A      4.6713    13.3831    40.3853 O.2   1 AGS  -0.7000 
 14 O2A      3.5031    15.3193    38.9262 O.3   1 AGS  -0.7712 
 15 H2A      4.2601    15.2705    38.3377 H     1 AGS   0.5000 
 16 O3A      2.7281    12.9221    38.6440 O.3   1 AGS  -0.5424 
 17 O5'      2.2144    13.7572    40.8614 O.3   1 AGS  -0.5512 
 18 C5'      2.5162    13.0869    42.0821 C.3   1 AGS   0.1200 
 19 H5'1     3.2985    13.6353    42.6069 H     1 AGS   0.0800 
 20 H5'2     2.8660    12.0789    41.8593 H     1 AGS   0.0800 
 21 C4'      1.2702    13.0014    42.9811 C.3   1 AGS   0.2000 
 22 H4'      1.2670    12.0243    43.4643 H     1 AGS   0.0800 
 23 O4'      1.3377    14.0462    43.9107 O.3   1 AGS  -0.5600 
 24 C3'     -0.0382    13.1155    42.1957 C.3   1 AGS   0.2000 
 25 H3'      0.1328    13.3689    41.1494 H     1 AGS   0.0800 
 26 O3'     -0.7372    11.8878    42.1354 O.3   1 AGS  -0.6800 
 27 H3'     -1.5871    12.0165    42.5627 H     1 AGS   0.4000 
 28 C2'     -0.8071    14.1816    42.9036 C.3   1 AGS  -0.1526 
 29 H2'     -1.2144    14.8786    42.1712 H     1 AGS   0.0800 
 30 O2'     -1.9745    13.6696    43.6635 O.3   1 AGS  -0.9274 
 31 C1'      0.1570    14.7996    43.8542 C.3   1 AGS   0.4556 
 32 H1'     -0.2062    14.8497    44.8807 H     1 AGS   0.0800 
 33 N9       0.4005    16.1960    43.2412 N.pl3 1 AGS   0.0476 
 34 C8       1.1210    16.6316    42.0873 C.2   1 AGS   0.0365 
 35 H8       1.6119    15.9090    41.4523 H     1 AGS   0.1500 
 36 N7       1.1868    17.9225    41.7964 N.2   1 AGS  -0.5653 
 37 C5       0.4481    18.4435    42.8275 C.ar  1 AGS   0.2272 
 38 C6       0.1074    19.8014    43.1623 C.ar  1 AGS   0.4100 
 39 N6       0.5734    20.8826    42.3410 N.pl3 1 AGS  -0.9000 
 40 H61      0.3343    21.8352    42.5767 H     1 AGS   0.4000 
 41 H62      1.1403    20.6908    41.5274 H     1 AGS   0.4000 
 42 N1      -0.6641    20.0717    44.2683 N.ar  1 AGS  -0.6200 
 43 C2      -1.1210    19.0183    45.0893 C.ar  1 AGS   0.4700 
 44 H2      -1.7258    19.2893    45.9421 H     1 AGS   0.1500 
 45 N3      -0.8626    17.6508    44.9009 N.ar  1 AGS  -0.5670 
 46 C4      -0.0663    17.4187    43.7493 C.ar  1 AGS   0.1054 
@<TRIPOS>BOND
  1   1   2  2   
  2   1   3  1   
  3   1   5  1   
  4   1  11  1   
  5   3   4  1   
  6   5   6  1   
  7   7   8  2   
  8   7   9  1   
  9   7  11  1   
 10   7  16  1   
 11   9  10  1   
 12  12  13  2   
 13  12  14  1   
 14  12  16  1   
 15  12  17  1   
 16  14  15  1   
 17  17  18  1   
 18  18  19  1   
 19  18  20  1   
 20  18  21  1   
 21  21  22  1   
 22  21  23  1   
 23  21  24  1   
 24  23  31  1   
 25  24  25  1   
 26  24  26  1   
 27  24  28  1   
 28  26  27  1   
 29  28  29  1   
 30  28  30  1   
 31  28  31  1   
 32  31  32  1   
 33  31  33  1   
 34  33  34  1   
 35  33  46  1   
 36  34  35  1   
 37  34  36  2   
 38  36  37  1   
 39  37  38  ar  
 40  37  46  ar  
 41  38  39  1   
 42  38  42  ar  
 43  39  40  1   
 44  39  41  1   
 45  42  43  ar  
 46  43  44  1   
 47  43  45  ar  
 48  45  46  ar  
@<TRIPOS>SUBSTRUCTURE
  1 AGS  17 GROUP 4 B **** 0

# MOE 2012.10 (io_trps.svl 2012.10)
