@<TRIPOS>MOLECULE
2g2f.B
90 60 30 0 0 
SMALL
NO_CHARGES


@<TRIPOS>ATOM
  1 O      -13.3956     5.5186    12.9231 O.3    1 HOH   0.0000 
  2 H1     -12.4356     5.5186    12.9231 H      1 HOH   0.0000 
  3 H2     -13.6859     6.1657    13.5702 H      1 HOH   0.0000 
  4 O       -3.2652     3.6821    27.4152 O.3    2 HOH   0.0000 
  5 H1      -2.3052     3.6821    27.4152 H      2 HOH   0.0000 
  6 H2      -3.5554     4.3291    28.0622 H      2 HOH   0.0000 
  7 O        2.5289    30.2492    11.3118 O.3    3 HOH   0.0000 
  8 H1       3.4889    30.2492    11.3118 H      3 HOH   0.0000 
  9 H2       2.2386    30.8963    11.9588 H      3 HOH   0.0000 
 10 O        8.6354    17.5154    11.9970 O.3    4 HOH   0.0000 
 11 H1       9.5954    17.5154    11.9970 H      4 HOH   0.0000 
 12 H2       8.3451    18.1625    12.6441 H      4 HOH   0.0000 
 13 O      -22.0038    13.3803    18.4055 O.3    5 HOH   0.0000 
 14 H1     -21.0438    13.3803    18.4055 H      5 HOH   0.0000 
 15 H2     -22.2941    14.0274    19.0525 H      5 HOH   0.0000 
 16 O      -17.4492     1.0211    26.3728 O.3    6 HOH   0.0000 
 17 H1     -16.4892     1.0211    26.3728 H      6 HOH   0.0000 
 18 H2     -17.7395     1.6681    27.0199 H      6 HOH   0.0000 
 19 O      -14.2222     5.4934    22.2450 O.3    7 HOH   0.0000 
 20 H1     -13.2622     5.4934    22.2450 H      7 HOH   0.0000 
 21 H2     -14.5124     6.1404    22.8921 H      7 HOH   0.0000 
 22 O       -9.1306     6.8417    22.8933 O.3    8 HOH   0.0000 
 23 H1      -8.1706     6.8417    22.8933 H      8 HOH   0.0000 
 24 H2      -9.4209     7.4887    23.5403 H      8 HOH   0.0000 
 25 O        6.9471    24.4146    16.9252 O.3    9 HOH   0.0000 
 26 H1       7.9071    24.4146    16.9252 H      9 HOH   0.0000 
 27 H2       6.6568    25.0616    17.5722 H      9 HOH   0.0000 
 28 O       -9.7113    23.6261    16.9696 O.3   10 HOH   0.0000 
 29 H1      -8.7513    23.6261    16.9696 H     10 HOH   0.0000 
 30 H2     -10.0015    24.2731    17.6167 H     10 HOH   0.0000 
 31 O      -20.9477    25.0741    21.3157 O.3   11 HOH   0.0000 
 32 H1     -19.9877    25.0741    21.3157 H     11 HOH   0.0000 
 33 H2     -21.2380    25.7211    21.9627 H     11 HOH   0.0000 
 34 O       -3.6490    23.2315    16.5482 O.3   12 HOH   0.0000 
 35 H1      -2.6890    23.2315    16.5482 H     12 HOH   0.0000 
 36 H2      -3.9393    23.8786    17.1952 H     12 HOH   0.0000 
 37 O      -10.2764    -7.1772    21.8454 O.3   13 HOH   0.0000 
 38 H1      -9.3164    -7.1772    21.8454 H     13 HOH   0.0000 
 39 H2     -10.5667    -6.5302    22.4925 H     13 HOH   0.0000 
 40 O      -15.7857     9.4267    12.8977 O.3   14 HOH   0.0000 
 41 H1     -14.8257     9.4267    12.8977 H     14 HOH   0.0000 
 42 H2     -16.0760    10.0738    13.5448 H     14 HOH   0.0000 
 43 O       -6.1351     9.6715    34.0601 O.3   15 HOH   0.0000 
 44 H1      -5.1751     9.6715    34.0601 H     15 HOH   0.0000 
 45 H2      -6.4254    10.3186    34.7071 H     15 HOH   0.0000 
 46 O      -14.6687     0.1447    25.4800 O.3   16 HOH   0.0000 
 47 H1     -13.7087     0.1447    25.4800 H     16 HOH   0.0000 
 48 H2     -14.9590     0.7918    26.1271 H     16 HOH   0.0000 
 49 O       -6.4095     5.8426    21.3518 O.3   17 HOH   0.0000 
 50 H1      -5.4495     5.8426    21.3518 H     17 HOH   0.0000 
 51 H2      -6.6998     6.4897    21.9988 H     17 HOH   0.0000 
 52 O      -14.6164    -2.3036    27.4695 O.3   18 HOH   0.0000 
 53 H1     -13.6564    -2.3036    27.4695 H     18 HOH   0.0000 
 54 H2     -14.9067    -1.6565    28.1166 H     18 HOH   0.0000 
 55 O      -11.5464    30.6104    28.5042 O.3   19 HOH   0.0000 
 56 H1     -10.5864    30.6104    28.5042 H     19 HOH   0.0000 
 57 H2     -11.8367    31.2575    29.1512 H     19 HOH   0.0000 
 58 O      -16.1123    24.5054    50.7077 O.3   20 HOH   0.0000 
 59 H1     -15.1523    24.5054    50.7077 H     20 HOH   0.0000 
 60 H2     -16.4026    25.1525    51.3548 H     20 HOH   0.0000 
 61 O       -0.1196     3.5280    27.5427 O.3   21 HOH   0.0000 
 62 H1       0.8404     3.5280    27.5427 H     21 HOH   0.0000 
 63 H2      -0.4099     4.1751    28.1897 H     21 HOH   0.0000 
 64 O      -14.6085    25.6456    41.8385 O.3   22 HOH   0.0000 
 65 H1     -13.6485    25.6456    41.8385 H     22 HOH   0.0000 
 66 H2     -14.8988    26.2927    42.4856 H     22 HOH   0.0000 
 67 O       -6.4090    -5.3840    28.7662 O.3   23 HOH   0.0000 
 68 H1      -5.4490    -5.3840    28.7662 H     23 HOH   0.0000 
 69 H2      -6.6992    -4.7369    29.4132 H     23 HOH   0.0000 
 70 O       -3.0310    -4.2661    26.5062 O.3   24 HOH   0.0000 
 71 H1      -2.0710    -4.2661    26.5062 H     24 HOH   0.0000 
 72 H2      -3.3213    -3.6190    27.1532 H     24 HOH   0.0000 
 73 O      -13.1122    19.7897    47.5383 O.3   25 HOH   0.0000 
 74 H1     -12.1522    19.7897    47.5383 H     25 HOH   0.0000 
 75 H2     -13.4025    20.4367    48.1853 H     25 HOH   0.0000 
 76 O       -7.8843    -7.4449    14.5673 O.3   26 HOH   0.0000 
 77 H1      -6.9243    -7.4449    14.5673 H     26 HOH   0.0000 
 78 H2      -8.1745    -6.7979    15.2144 H     26 HOH   0.0000 
 79 O        3.7870    30.2261    19.2167 O.3   27 HOH   0.0000 
 80 H1       4.7470    30.2261    19.2167 H     27 HOH   0.0000 
 81 H2       3.4967    30.8731    19.8638 H     27 HOH   0.0000 
 82 O       -8.6072    23.9421    13.8985 O.3   28 HOH   0.0000 
 83 H1      -7.6472    23.9421    13.8985 H     28 HOH   0.0000 
 84 H2      -8.8975    24.5892    14.5456 H     28 HOH   0.0000 
 85 O       -8.3112    13.5320     7.0128 O.3   29 HOH   0.0000 
 86 H1      -7.3512    13.5320     7.0128 H     29 HOH   0.0000 
 87 H2      -8.6015    14.1790     7.6599 H     29 HOH   0.0000 
 88 O       -2.0835    29.9988    35.8764 O.3   30 HOH   0.0000 
 89 H1      -1.1235    29.9988    35.8764 H     30 HOH   0.0000 
 90 H2      -2.3738    30.6459    36.5234 H     30 HOH   0.0000 
@<TRIPOS>BOND
  1   1   2  1   
  2   1   3  1   
  3   4   5  1   
  4   4   6  1   
  5   7   8  1   
  6   7   9  1   
  7  10  11  1   
  8  10  12  1   
  9  13  14  1   
 10  13  15  1   
 11  16  17  1   
 12  16  18  1   
 13  19  20  1   
 14  19  21  1   
 15  22  23  1   
 16  22  24  1   
 17  25  26  1   
 18  25  27  1   
 19  28  29  1   
 20  28  30  1   
 21  31  32  1   
 22  31  33  1   
 23  34  35  1   
 24  34  36  1   
 25  37  38  1   
 26  37  39  1   
 27  40  41  1   
 28  40  42  1   
 29  43  44  1   
 30  43  45  1   
 31  46  47  1   
 32  46  48  1   
 33  49  50  1   
 34  49  51  1   
 35  52  53  1   
 36  52  54  1   
 37  55  56  1   
 38  55  57  1   
 39  58  59  1   
 40  58  60  1   
 41  61  62  1   
 42  61  63  1   
 43  64  65  1   
 44  64  66  1   
 45  67  68  1   
 46  67  69  1   
 47  70  71  1   
 48  70  72  1   
 49  73  74  1   
 50  73  75  1   
 51  76  77  1   
 52  76  78  1   
 53  79  80  1   
 54  79  81  1   
 55  82  83  1   
 56  82  84  1   
 57  85  86  1   
 58  85  87  1   
 59  88  89  1   
 60  88  90  1   
@<TRIPOS>SUBSTRUCTURE
  1 HOH   1 GROUP 4 B **** 0
  2 HOH   4 GROUP 4 B **** 0
  3 HOH   7 GROUP 4 B **** 0
  4 HOH  10 GROUP 4 B **** 0
  5 HOH  13 GROUP 4 B **** 0
  6 HOH  16 GROUP 4 B **** 0
  7 HOH  19 GROUP 4 B **** 0
  8 HOH  22 GROUP 4 B **** 0
  9 HOH  25 GROUP 4 B **** 0
 10 HOH  28 GROUP 4 B **** 0
 11 HOH  31 GROUP 4 B **** 0
 12 HOH  34 GROUP 4 B **** 0
 13 HOH  37 GROUP 4 B **** 0
 14 HOH  40 GROUP 4 B **** 0
 15 HOH  43 GROUP 4 B **** 0
 16 HOH  46 GROUP 4 B **** 0
 17 HOH  49 GROUP 4 B **** 0
 18 HOH  52 GROUP 4 B **** 0
 19 HOH  55 GROUP 4 B **** 0
 20 HOH  58 GROUP 4 B **** 0
 21 HOH  61 GROUP 4 B **** 0
 22 HOH  64 GROUP 4 B **** 0
 23 HOH  67 GROUP 4 B **** 0
 24 HOH  70 GROUP 4 B **** 0
 25 HOH  73 GROUP 4 B **** 0
 26 HOH  76 GROUP 4 B **** 0
 27 HOH  79 GROUP 4 B **** 0
 28 HOH  82 GROUP 4 B **** 0
 29 HOH  85 GROUP 4 B **** 0
 30 HOH  88 GROUP 4 B **** 0

# MOE 2012.10 (io_trps.svl 2012.10)
