@<TRIPOS>MOLECULE
2hyy.D
69 73 1 0 0 
SMALL
USER_CHARGES


@<TRIPOS>ATOM
  1 C1       0.1454    18.2382    44.3718 C.ar  1 STI  -0.1500 
  2 H1       0.0646    17.3024    44.9048 H     1 STI   0.1500 
  3 C6       0.9206    18.3733    43.1854 C.ar  1 STI  -0.1500 
  4 H6       1.4463    17.5112    42.8021 H     1 STI   0.1500 
  5 C5       1.0223    19.5960    42.4974 C.ar  1 STI   0.0000 
  6 C4       0.3612    20.6880    43.0386 C.ar  1 STI   0.1600 
  7 H4       0.4549    21.6442    42.5454 H     1 STI   0.1500 
  8 N3      -0.4082    20.6078    44.1749 N.ar  1 STI  -0.6200 
  9 C2      -0.4993    19.3911    44.7964 C.ar  1 STI   0.1600 
 10 H2      -1.1168    19.3241    45.6799 H     1 STI   0.1500 
 11 C7       1.8591    19.7762    41.2381 C.ar  1 STI   0.3100 
 12 C12      2.6128    18.7922    40.7374 C.ar  1 STI  -0.1500 
 13 H12      2.6296    17.7996    41.1626 H     1 STI   0.1500 
 14 C11      3.3809    19.1469    39.6170 C.ar  1 STI   0.1600 
 15 H11      4.0364    18.4127    39.1723 H     1 STI   0.1500 
 16 N10      3.3185    20.3808    39.0849 N.ar  1 STI  -0.6200 
 17 C9       2.5892    21.3040    39.6400 C.ar  1 STI   0.7200 
 18 N8       1.8441    21.0317    40.7076 N.ar  1 STI  -0.6200 
 19 N13      2.4528    22.6077    39.1767 N.pl3 1 STI  -0.6000 
 20 H13      1.7323    23.1859    39.5850 H     1 STI   0.4000 
 21 C14      3.2604    23.1653    38.1730 C.ar  1 STI   0.1000 
 22 C19      4.5306    23.7271    38.4221 C.ar  1 STI  -0.1435 
 23 C18      5.2138    24.2783    37.3673 C.ar  1 STI  -0.1500 
 24 H18      6.1921    24.6959    37.5544 H     1 STI   0.1500 
 25 C17      4.7110    24.3286    36.0617 C.ar  1 STI  -0.1500 
 26 H17      5.3061    24.7320    35.2557 H     1 STI   0.1500 
 27 C16      3.4226    23.8452    35.8254 C.ar  1 STI   0.1170 
 28 C15      2.7270    23.2674    36.8865 C.ar  1 STI  -0.1500 
 29 H15      1.7342    22.8826    36.7059 H     1 STI   0.1500 
 30 N21      2.9412    23.9398    34.4728 N.am  1 STI  -0.5470 
 31 H21      3.5859    24.2069    33.7426 H     1 STI   0.3700 
 32 C22      1.6651    23.6852    34.1496 C.2   1 STI   0.5438 
 33 C23      1.2235    24.1050    32.8286 C.ar  1 STI   0.0862 
 34 C25     -0.1517    24.1452    32.5657 C.ar  1 STI  -0.1500 
 35 H25     -0.8696    23.8919    33.3317 H     1 STI   0.1500 
 36 C26     -0.5762    24.5260    31.2705 C.ar  1 STI  -0.1500 
 37 H26     -1.6323    24.5861    31.0530 H     1 STI   0.1500 
 38 C27      0.3466    24.8239    30.2740 C.ar  1 STI  -0.1435 
 39 C28      1.7105    24.7470    30.5182 C.ar  1 STI  -0.1500 
 40 H28      2.4149    24.9828    29.7342 H     1 STI   0.1500 
 41 C29      2.1783    24.3570    31.8028 C.ar  1 STI  -0.1500 
 42 H29      3.2357    24.2540    31.9965 H     1 STI   0.1500 
 43 C46     -0.1894    25.1760    28.9299 C.3   1 STI   0.2535 
 44 H461    -0.1397    26.2599    28.8259 H     1 STI   0.0800 
 45 H462    -1.2303    24.8548    28.8927 H     1 STI   0.0800 
 46 N48      0.4987    24.5875    27.7864 N.3   1 STI  -0.8100 
 47 C53      0.4981    23.0957    27.8192 C.3   1 STI   0.1100 
 48 H531    -0.5315    22.7449    27.8905 H     1 STI   0.0800 
 49 H532     1.0569    22.7620    28.6936 H     1 STI   0.0800 
 50 C52      1.1696    22.4700    26.5044 C.3   1 STI   0.3430 
 51 H521     0.9662    21.3999    26.4641 H     1 STI   0.0800 
 52 H522     2.2468    22.6344    26.5307 H     1 STI   0.0800 
 53 N51      0.5924    23.1336    25.3023 N.4   1 STI  -0.9590 
 54 H51     -0.3928    22.9144    25.2631 H     1 STI   0.4500 
 55 C54      1.2631    22.6285    24.1057 C.3   1 STI   0.2630 
 56 H541     1.1718    21.5430    24.0689 H     1 STI   0.0800 
 57 H542     2.3174    22.9036    24.1367 H     1 STI   0.0800 
 58 H543     0.8003    23.0623    23.2193 H     1 STI   0.0800 
 59 C50      0.6999    24.5598    25.3712 C.3   1 STI   0.3430 
 60 H501     0.3348    24.9942    24.4405 H     1 STI   0.0800 
 61 H502     1.7444    24.8360    25.5158 H     1 STI   0.0800 
 62 C49     -0.1466    25.1041    26.5609 C.3   1 STI   0.1100 
 63 H491    -0.1433    26.1941    26.5612 H     1 STI   0.0800 
 64 H492    -1.1730    24.7439    26.4921 H     1 STI   0.0800 
 65 O29      0.8389    23.0788    34.8213 O.2   1 STI  -0.5700 
 66 C20      5.1850    23.6859    39.7824 C.3   1 STI  -0.0965 
 67 H201     4.5077    23.2188    40.4974 H     1 STI   0.0800 
 68 H202     5.4124    24.7013    40.1071 H     1 STI   0.0800 
 69 H203     6.1073    23.1079    39.7245 H     1 STI   0.0800 
@<TRIPOS>BOND
  1   1   2  1   
  2   1   3  ar  
  3   1   9  ar  
  4   3   4  1   
  5   3   5  ar  
  6   5   6  ar  
  7   5  11  1   
  8   6   7  1   
  9   6   8  ar  
 10   8   9  ar  
 11   9  10  1   
 12  11  12  ar  
 13  11  18  ar  
 14  12  13  1   
 15  12  14  ar  
 16  14  15  1   
 17  14  16  ar  
 18  16  17  ar  
 19  17  18  ar  
 20  17  19  1   
 21  19  20  1   
 22  19  21  1   
 23  21  22  ar  
 24  21  28  ar  
 25  22  23  ar  
 26  22  66  1   
 27  23  24  1   
 28  23  25  ar  
 29  25  26  1   
 30  25  27  ar  
 31  27  28  ar  
 32  27  30  1   
 33  28  29  1   
 34  30  31  1   
 35  30  32  am  
 36  32  33  1   
 37  32  65  2   
 38  33  34  ar  
 39  33  41  ar  
 40  34  35  1   
 41  34  36  ar  
 42  36  37  1   
 43  36  38  ar  
 44  38  39  ar  
 45  38  43  1   
 46  39  40  1   
 47  39  41  ar  
 48  41  42  1   
 49  43  44  1   
 50  43  45  1   
 51  43  46  1   
 52  46  47  1   
 53  46  62  1   
 54  47  48  1   
 55  47  49  1   
 56  47  50  1   
 57  50  51  1   
 58  50  52  1   
 59  50  53  1   
 60  53  54  1   
 61  53  55  1   
 62  53  59  1   
 63  55  56  1   
 64  55  57  1   
 65  55  58  1   
 66  59  60  1   
 67  59  61  1   
 68  59  62  1   
 69  62  63  1   
 70  62  64  1   
 71  66  67  1   
 72  66  68  1   
 73  66  69  1   
@<TRIPOS>SUBSTRUCTURE
  1 STI  65 GROUP 4 D **** 0

# MOE 2012.10 (io_trps.svl 2012.10)
