@<TRIPOS>MOLECULE
2hyy.D
141 94 47 0 0 
SMALL
USER_CHARGES


@<TRIPOS>ATOM
  1 O      -13.2821     4.9768    22.7765 O.3    1 HOH   0.0000 
  2 H1     -12.3221     4.9768    22.7765 H      1 HOH   0.0000 
  3 H2     -13.5724     5.6239    23.4236 H      1 HOH   0.0000 
  4 O       -3.4088    12.6621    27.1896 O.3    2 HOH   0.0000 
  5 H1      -2.4488    12.6621    27.1896 H      2 HOH   0.0000 
  6 H2      -3.6991    13.3091    27.8367 H      2 HOH   0.0000 
  7 O      -12.2781     4.7354    46.2230 O.3    3 HOH   0.0000 
  8 H1     -11.3181     4.7354    46.2230 H      3 HOH   0.0000 
  9 H2     -12.5684     5.3825    46.8701 H      3 HOH   0.0000 
 10 O       -5.0287    16.2907    24.8742 O.3    4 HOH   0.0000 
 11 H1      -4.0687    16.2907    24.8742 H      4 HOH   0.0000 
 12 H2      -5.3190    16.9377    25.5213 H      4 HOH   0.0000 
 13 O       -7.0859     6.1335    33.7601 O.3    5 HOH   0.0000 
 14 H1      -6.1259     6.1335    33.7601 H      5 HOH   0.0000 
 15 H2      -7.3762     6.7805    34.4072 H      5 HOH   0.0000 
 16 O       -2.0844     4.9162    26.5354 O.3    6 HOH   0.0000 
 17 H1      -1.1244     4.9162    26.5354 H      6 HOH   0.0000 
 18 H2      -2.3747     5.5633    27.1825 H      6 HOH   0.0000 
 19 O      -20.6015     3.8920    47.4101 O.3    7 HOH   0.0000 
 20 H1     -19.6415     3.8920    47.4101 H      7 HOH   0.0000 
 21 H2     -20.8918     4.5390    48.0571 H      7 HOH   0.0000 
 22 O      -14.7205    21.6237    13.1625 O.3    8 HOH   0.0000 
 23 H1     -13.7605    21.6237    13.1625 H      8 HOH   0.0000 
 24 H2     -15.0107    22.2708    13.8096 H      8 HOH   0.0000 
 25 O       -6.4827    23.4866    47.4835 O.3    9 HOH   0.0000 
 26 H1      -5.5227    23.4866    47.4835 H      9 HOH   0.0000 
 27 H2      -6.7730    24.1336    48.1305 H      9 HOH   0.0000 
 28 O      -19.7362    17.8877    11.3965 O.3   10 HOH   0.0000 
 29 H1     -18.7762    17.8877    11.3965 H     10 HOH   0.0000 
 30 H2     -20.0265    18.5348    12.0435 H     10 HOH   0.0000 
 31 O      -11.7880    -3.0158    27.5922 O.3   11 HOH   0.0000 
 32 H1     -10.8280    -3.0158    27.5922 H     11 HOH   0.0000 
 33 H2     -12.0783    -2.3687    28.2393 H     11 HOH   0.0000 
 34 O      -13.6131    28.3101    23.5224 O.3   12 HOH   0.0000 
 35 H1     -12.6531    28.3101    23.5224 H     12 HOH   0.0000 
 36 H2     -13.9034    28.9572    24.1695 H     12 HOH   0.0000 
 37 O       -4.8113    26.5208    45.5063 O.3   13 HOH   0.0000 
 38 H1      -3.8513    26.5208    45.5063 H     13 HOH   0.0000 
 39 H2      -5.1016    27.1679    46.1533 H     13 HOH   0.0000 
 40 O       -4.4527    12.4600    44.8661 O.3   14 HOH   0.0000 
 41 H1      -3.4927    12.4600    44.8661 H     14 HOH   0.0000 
 42 H2      -4.7430    13.1070    45.5131 H     14 HOH   0.0000 
 43 O       -6.3052     6.3332    21.1368 O.3   15 HOH   0.0000 
 44 H1      -5.3452     6.3332    21.1368 H     15 HOH   0.0000 
 45 H2      -6.5955     6.9803    21.7838 H     15 HOH   0.0000 
 46 O      -20.5027    27.6961    27.3120 O.3   16 HOH   0.0000 
 47 H1     -19.5427    27.6961    27.3120 H     16 HOH   0.0000 
 48 H2     -20.7930    28.3431    27.9590 H     16 HOH   0.0000 
 49 O       -4.1329     5.6310    43.3652 O.3   17 HOH   0.0000 
 50 H1      -3.1729     5.6310    43.3652 H     17 HOH   0.0000 
 51 H2      -4.4232     6.2781    44.0123 H     17 HOH   0.0000 
 52 O       -8.5097    -4.0131     7.3377 O.3   18 HOH   0.0000 
 53 H1      -7.5497    -4.0131     7.3377 H     18 HOH   0.0000 
 54 H2      -8.8000    -3.3661     7.9847 H     18 HOH   0.0000 
 55 O       -8.5466     6.9459    22.5995 O.3   19 HOH   0.0000 
 56 H1      -7.5866     6.9459    22.5995 H     19 HOH   0.0000 
 57 H2      -8.8369     7.5929    23.2465 H     19 HOH   0.0000 
 58 O       -5.1140     9.8166    33.4469 O.3   20 HOH   0.0000 
 59 H1      -4.1540     9.8166    33.4469 H     20 HOH   0.0000 
 60 H2      -5.4042    10.4636    34.0940 H     20 HOH   0.0000 
 61 O        1.0640    18.9294    26.7037 O.3   21 HOH  -0.8340 
 62 H1       1.3184    19.1699    27.5946 H     21 HOH   0.4170 
 63 H2       0.1150    19.0526    26.6836 H     21 HOH   0.4170 
 64 O       -2.4082     4.2596    35.9443 O.3   22 HOH   0.0000 
 65 H1      -1.4482     4.2596    35.9443 H     22 HOH   0.0000 
 66 H2      -2.6985     4.9066    36.5914 H     22 HOH   0.0000 
 67 O      -13.0892     4.9723    43.7677 O.3   23 HOH   0.0000 
 68 H1     -12.1292     4.9723    43.7677 H     23 HOH   0.0000 
 69 H2     -13.3795     5.6193    44.4148 H     23 HOH   0.0000 
 70 O      -16.9205     8.3860    13.7669 O.3   24 HOH   0.0000 
 71 H1     -15.9605     8.3860    13.7669 H     24 HOH   0.0000 
 72 H2     -17.2108     9.0331    14.4139 H     24 HOH   0.0000 
 73 O      -14.2713     5.1291    13.5256 O.3   25 HOH   0.0000 
 74 H1     -13.3113     5.1291    13.5256 H     25 HOH   0.0000 
 75 H2     -14.5616     5.7762    14.1726 H     25 HOH   0.0000 
 76 O      -12.9058    23.0933    18.6489 O.3   26 HOH   0.0000 
 77 H1     -11.9458    23.0933    18.6489 H     26 HOH   0.0000 
 78 H2     -13.1961    23.7403    19.2959 H     26 HOH   0.0000 
 79 O      -16.2681    30.3159    23.7970 O.3   27 HOH   0.0000 
 80 H1     -15.3081    30.3159    23.7970 H     27 HOH   0.0000 
 81 H2     -16.5584    30.9629    24.4441 H     27 HOH   0.0000 
 82 O       -6.3485    23.7491    17.2027 O.3   28 HOH   0.0000 
 83 H1      -5.3885    23.7491    17.2027 H     28 HOH   0.0000 
 84 H2      -6.6388    24.3961    17.8498 H     28 HOH   0.0000 
 85 O      -16.9836    22.8251    15.9497 O.3   29 HOH   0.0000 
 86 H1     -16.0236    22.8251    15.9497 H     29 HOH   0.0000 
 87 H2     -17.2738    23.4721    16.5968 H     29 HOH   0.0000 
 88 O       -4.6341     5.3339    33.7578 O.3   30 HOH   0.0000 
 89 H1      -3.6741     5.3339    33.7578 H     30 HOH   0.0000 
 90 H2      -4.9244     5.9810    34.4049 H     30 HOH   0.0000 
 91 O      -19.9437     3.6470    42.1163 O.3   31 HOH   0.0000 
 92 H1     -18.9837     3.6470    42.1163 H     31 HOH   0.0000 
 93 H2     -20.2340     4.2941    42.7634 H     31 HOH   0.0000 
 94 O      -18.5874    19.7182    14.8573 O.3   32 HOH   0.0000 
 95 H1     -17.6274    19.7182    14.8573 H     32 HOH   0.0000 
 96 H2     -18.8776    20.3652    15.5043 H     32 HOH   0.0000 
 97 O        4.7922    20.3876    36.7660 O.3   33 HOH  -0.8340 
 98 H1       4.2182    20.4814    37.5263 H     33 HOH   0.4170 
 99 H2       4.6761    21.2016    36.2759 H     33 HOH   0.4170 
100 O      -11.2475     2.9678    40.6909 O.3   34 HOH   0.0000 
101 H1     -10.2875     2.9678    40.6909 H     34 HOH   0.0000 
102 H2     -11.5378     3.6149    41.3379 H     34 HOH   0.0000 
103 O        1.6448    23.2259    20.8504 O.3   35 HOH  -0.8340 
104 H1       2.5650    23.4583    20.7261 H     35 HOH   0.4170 
105 H2       1.2192    24.0496    21.0884 H     35 HOH   0.4170 
106 O      -21.4533    -1.2463    38.5468 O.3   36 HOH   0.0000 
107 H1     -20.4933    -1.2463    38.5468 H     36 HOH   0.0000 
108 H2     -21.7435    -0.5993    39.1939 H     36 HOH   0.0000 
109 O      -18.3008     6.7768    16.5431 O.3   37 HOH   0.0000 
110 H1     -17.3408     6.7768    16.5431 H     37 HOH   0.0000 
111 H2     -18.5910     7.4238    17.1902 H     37 HOH   0.0000 
112 O       -0.5007    14.5513    43.2709 O.3   38 HOH  -0.8340 
113 H1      -0.1760    14.5453    42.3705 H     38 HOH   0.4170 
114 H2      -0.4217    13.6424    43.5605 H     38 HOH   0.4170 
115 O      -12.8898    -1.2764    25.8365 O.3   39 HOH   0.0000 
116 H1     -11.9298    -1.2764    25.8365 H     39 HOH   0.0000 
117 H2     -13.1800    -0.6294    26.4835 H     39 HOH   0.0000 
118 O       18.8271    21.6765    32.5017 O.3   40 HOH   0.0000 
119 H1      19.7871    21.6765    32.5017 H     40 HOH   0.0000 
120 H2      18.5368    22.3235    33.1488 H     40 HOH   0.0000 
121 O       -3.3262    -0.3179    15.3480 O.3   41 HOH   0.0000 
122 H1      -2.3662    -0.3179    15.3480 H     41 HOH   0.0000 
123 H2      -3.6165     0.3291    15.9951 H     41 HOH   0.0000 
124 O       13.3787    36.0486    52.3895 O.3   42 HOH   0.0000 
125 H1      14.3387    36.0486    52.3895 H     42 HOH   0.0000 
126 H2      13.0884    36.6957    53.0365 H     42 HOH   0.0000 
127 O       20.1726    24.2878    36.2645 O.3   43 HOH   0.0000 
128 H1      21.1326    24.2878    36.2645 H     43 HOH   0.0000 
129 H2      19.8823    24.9348    36.9115 H     43 HOH   0.0000 
130 O       -0.3544    25.7011    21.7828 O.3   44 HOH  -0.8340 
131 H1      -0.4595    25.6912    20.8314 H     44 HOH   0.4170 
132 H2       0.2844    26.3949    21.9464 H     44 HOH   0.4170 
133 O       -7.6232    -6.7136    11.6258 O.3   45 HOH   0.0000 
134 H1      -6.6632    -6.7136    11.6258 H     45 HOH   0.0000 
135 H2      -7.9135    -6.0665    12.2729 H     45 HOH   0.0000 
136 O       11.1583    37.0520    35.2431 O.3   46 HOH   0.0000 
137 H1      12.1183    37.0520    35.2431 H     46 HOH   0.0000 
138 H2      10.8680    37.6990    35.8902 H     46 HOH   0.0000 
139 O        0.5777     4.5090    25.0474 O.3   47 HOH   0.0000 
140 H1       1.5377     4.5090    25.0474 H     47 HOH   0.0000 
141 H2       0.2875     5.1560    25.6945 H     47 HOH   0.0000 
@<TRIPOS>BOND
  1   1   2  1   
  2   1   3  1   
  3   4   5  1   
  4   4   6  1   
  5   7   8  1   
  6   7   9  1   
  7  10  11  1   
  8  10  12  1   
  9  13  14  1   
 10  13  15  1   
 11  16  17  1   
 12  16  18  1   
 13  19  20  1   
 14  19  21  1   
 15  22  23  1   
 16  22  24  1   
 17  25  26  1   
 18  25  27  1   
 19  28  29  1   
 20  28  30  1   
 21  31  32  1   
 22  31  33  1   
 23  34  35  1   
 24  34  36  1   
 25  37  38  1   
 26  37  39  1   
 27  40  41  1   
 28  40  42  1   
 29  43  44  1   
 30  43  45  1   
 31  46  47  1   
 32  46  48  1   
 33  49  50  1   
 34  49  51  1   
 35  52  53  1   
 36  52  54  1   
 37  55  56  1   
 38  55  57  1   
 39  58  59  1   
 40  58  60  1   
 41  61  62  1   
 42  61  63  1   
 43  64  65  1   
 44  64  66  1   
 45  67  68  1   
 46  67  69  1   
 47  70  71  1   
 48  70  72  1   
 49  73  74  1   
 50  73  75  1   
 51  76  77  1   
 52  76  78  1   
 53  79  80  1   
 54  79  81  1   
 55  82  83  1   
 56  82  84  1   
 57  85  86  1   
 58  85  87  1   
 59  88  89  1   
 60  88  90  1   
 61  91  92  1   
 62  91  93  1   
 63  94  95  1   
 64  94  96  1   
 65  97  98  1   
 66  97  99  1   
 67 100 101  1   
 68 100 102  1   
 69 103 104  1   
 70 103 105  1   
 71 106 107  1   
 72 106 108  1   
 73 109 110  1   
 74 109 111  1   
 75 112 113  1   
 76 112 114  1   
 77 115 116  1   
 78 115 117  1   
 79 118 119  1   
 80 118 120  1   
 81 121 122  1   
 82 121 123  1   
 83 124 125  1   
 84 124 126  1   
 85 127 128  1   
 86 127 129  1   
 87 130 131  1   
 88 130 132  1   
 89 133 134  1   
 90 133 135  1   
 91 136 137  1   
 92 136 138  1   
 93 139 140  1   
 94 139 141  1   
@<TRIPOS>SUBSTRUCTURE
  1 HOH   1 GROUP 4 D **** 0
  2 HOH   4 GROUP 4 D **** 0
  3 HOH   7 GROUP 4 D **** 0
  4 HOH  10 GROUP 4 D **** 0
  5 HOH  13 GROUP 4 D **** 0
  6 HOH  16 GROUP 4 D **** 0
  7 HOH  19 GROUP 4 D **** 0
  8 HOH  22 GROUP 4 D **** 0
  9 HOH  25 GROUP 4 D **** 0
 10 HOH  28 GROUP 4 D **** 0
 11 HOH  31 GROUP 4 D **** 0
 12 HOH  34 GROUP 4 D **** 0
 13 HOH  37 GROUP 4 D **** 0
 14 HOH  40 GROUP 4 D **** 0
 15 HOH  43 GROUP 4 D **** 0
 16 HOH  46 GROUP 4 D **** 0
 17 HOH  49 GROUP 4 D **** 0
 18 HOH  52 GROUP 4 D **** 0
 19 HOH  55 GROUP 4 D **** 0
 20 HOH  58 GROUP 4 D **** 0
 21 HOH  61 GROUP 4 D **** 0
 22 HOH  64 GROUP 4 D **** 0
 23 HOH  67 GROUP 4 D **** 0
 24 HOH  70 GROUP 4 D **** 0
 25 HOH  73 GROUP 4 D **** 0
 26 HOH  76 GROUP 4 D **** 0
 27 HOH  79 GROUP 4 D **** 0
 28 HOH  82 GROUP 4 D **** 0
 29 HOH  85 GROUP 4 D **** 0
 30 HOH  88 GROUP 4 D **** 0
 31 HOH  91 GROUP 4 D **** 0
 32 HOH  94 GROUP 4 D **** 0
 33 HOH  97 GROUP 4 D **** 0
 34 HOH 100 GROUP 4 D **** 0
 35 HOH 103 GROUP 4 D **** 0
 36 HOH 106 GROUP 4 D **** 0
 37 HOH 109 GROUP 4 D **** 0
 38 HOH 112 GROUP 4 D **** 0
 39 HOH 115 GROUP 4 D **** 0
 40 HOH 118 GROUP 4 D **** 0
 41 HOH 121 GROUP 4 D **** 0
 42 HOH 124 GROUP 4 D **** 0
 43 HOH 127 GROUP 4 D **** 0
 44 HOH 130 GROUP 4 D **** 0
 45 HOH 133 GROUP 4 D **** 0
 46 HOH 136 GROUP 4 D **** 0
 47 HOH 139 GROUP 4 D **** 0

# MOE 2012.10 (io_trps.svl 2012.10)
