@<TRIPOS>MOLECULE
2g2h.B
45 48 1 0 0 
SMALL
USER_CHARGES


@<TRIPOS>ATOM
  1 O1      -1.8272    14.4753    49.1990 O.3   1 P16  -0.6800 
  2 H1      -2.2668    14.3084    50.0360 H     1 P16   0.4000 
  3 C2      -2.8041    14.8765    48.2805 C.3   1 P16   0.2635 
  4 H21     -3.2875    15.7761    48.6617 H     1 P16   0.0800 
  5 H22     -3.5412    14.0786    48.1899 H     1 P16   0.0800 
  6 C3      -2.2454    15.1795    46.8898 C.ar  1 P16  -0.1435 
  7 C4      -1.9240    14.1018    45.9811 C.ar  1 P16  -0.1500 
  8 H4      -2.0788    13.0769    46.2846 H     1 P16   0.1500 
  9 C5      -1.4029    14.3890    44.6849 C.ar  1 P16  -0.1500 
 10 H5      -1.1632    13.5762    44.0153 H     1 P16   0.1500 
 11 C6      -1.1934    15.7379    44.2593 C.ar  1 P16  -0.1500 
 12 H6      -0.8014    15.9390    43.2733 H     1 P16   0.1500 
 13 C7      -1.5070    16.8322    45.1504 C.ar  1 P16   0.1000 
 14 N9      -1.3325    18.2187    44.8278 N.pl3 1 P16  -0.6000 
 15 H9      -1.8479    18.8642    45.4090 H     1 P16   0.4000 
 16 C10     -0.5594    18.8047    43.8338 C.ar  1 P16   0.7200 
 17 N11     -0.6049    20.2059    43.8033 N.ar  1 P16  -0.6200 
 18 C12      0.1478    20.8307    42.8567 C.ar  1 P16   0.1600 
 19 H12      0.1321    21.9097    42.8132 H     1 P16   0.1500 
 20 C13      0.9664    20.1125    41.9081 C.ar  1 P16   0.0284 
 21 C16      1.7896    20.7537    40.8919 C.2   1 P16  -0.1784 
 22 H16      1.8020    21.8314    40.8227 H     1 P16   0.1500 
 23 C17      2.5552    20.0094    40.0146 C.2   1 P16  -0.0140 
 24 C18      2.5527    18.4942    40.0869 C.2   1 P16   0.6156 
 25 O21      3.2013    17.7486    39.3490 O.2   1 P16  -0.5700 
 26 N19      1.7144    17.8746    41.1240 N.am  1 P16  -0.4771 
 27 C14      0.9405    18.6541    42.0181 C.ar  1 P16   0.4270 
 28 N15      0.1774    18.0438    42.9771 N.ar  1 P16  -0.6200 
 29 C20      1.6737    16.3878    41.2464 C.3   1 P16   0.0601 
 30 H201     2.3199    15.9431    40.4897 H     1 P16   0.0800 
 31 H202     0.6512    16.0392    41.1015 H     1 P16   0.0800 
 32 H203     2.0202    16.0952    42.2376 H     1 P16   0.0800 
 33 C22      3.4164    20.6527    38.9746 C.ar  1 P16   0.0284 
 34 C27      2.9259    20.9541    37.6320 C.ar  1 P16   0.1770 
 35 CL28     1.2874    20.5910    37.1259 Cl    1 P16  -0.1770 
 36 C26      3.7879    21.5677    36.6625 C.ar  1 P16  -0.1500 
 37 H26      3.4137    21.7832    35.6726 H     1 P16   0.1500 
 38 C25      5.1366    21.8951    36.9973 C.ar  1 P16  -0.1500 
 39 H25      5.7736    22.3568    36.2574 H     1 P16   0.1500 
 40 C24      5.6507    21.6196    38.2956 C.ar  1 P16  -0.1500 
 41 H24      6.6722    21.8695    38.5416 H     1 P16   0.1500 
 42 C23      4.8031    21.0095    39.2704 C.ar  1 P16   0.1770 
 43 CL29     5.5268    20.7085    40.8547 Cl    1 P16  -0.1770 
 44 C8      -2.0364    16.5337    46.4703 C.ar  1 P16  -0.1500 
 45 H8      -2.2754    17.3432    47.1441 H     1 P16   0.1500 
@<TRIPOS>BOND
  1   1   2  1   
  2   1   3  1   
  3   3   4  1   
  4   3   5  1   
  5   3   6  1   
  6   6   7  ar  
  7   6  44  ar  
  8   7   8  1   
  9   7   9  ar  
 10   9  10  1   
 11   9  11  ar  
 12  11  12  1   
 13  11  13  ar  
 14  13  14  1   
 15  13  44  ar  
 16  14  15  1   
 17  14  16  1   
 18  16  17  ar  
 19  16  28  ar  
 20  17  18  ar  
 21  18  19  1   
 22  18  20  ar  
 23  20  21  1   
 24  20  27  ar  
 25  21  22  1   
 26  21  23  2   
 27  23  24  1   
 28  23  33  1   
 29  24  25  2   
 30  24  26  am  
 31  26  27  1   
 32  26  29  1   
 33  27  28  ar  
 34  29  30  1   
 35  29  31  1   
 36  29  32  1   
 37  33  34  ar  
 38  33  42  ar  
 39  34  35  1   
 40  34  36  ar  
 41  36  37  1   
 42  36  38  ar  
 43  38  39  1   
 44  38  40  ar  
 45  40  41  1   
 46  40  42  ar  
 47  42  43  1   
 48  44  45  1   
@<TRIPOS>SUBSTRUCTURE
  1 P16  27 GROUP 4 B **** 0

# MOE 2012.10 (io_trps.svl 2012.10)
