@<TRIPOS>MOLECULE
2g2h.B
528 352 176 0 0 
SMALL
USER_CHARGES


@<TRIPOS>ATOM
  1 O      -13.9139     6.3997    12.9127 O.3     1 HOH   0.0000 
  2 H1     -12.9539     6.3997    12.9127 H       1 HOH   0.0000 
  3 H2     -14.2042     7.0467    13.5597 H       1 HOH   0.0000 
  4 O       -9.4329     7.1948    22.5684 O.3     2 HOH   0.0000 
  5 H1      -8.4729     7.1948    22.5684 H       2 HOH   0.0000 
  6 H2      -9.7232     7.8418    23.2155 H       2 HOH   0.0000 
  7 O       -3.5703    22.9047    16.5132 O.3     3 HOH   0.0000 
  8 H1      -2.6103    22.9047    16.5132 H       3 HOH   0.0000 
  9 H2      -3.8606    23.5517    17.1603 H       3 HOH   0.0000 
 10 O       -7.3272     6.1989    21.3607 O.3     4 HOH   0.0000 
 11 H1      -6.3672     6.1989    21.3607 H       4 HOH   0.0000 
 12 H2      -7.6174     6.8460    22.0077 H       4 HOH   0.0000 
 13 O      -18.2969     1.7561    26.5421 O.3     5 HOH   0.0000 
 14 H1     -17.3369     1.7561    26.5421 H       5 HOH   0.0000 
 15 H2     -18.5872     2.4032    27.1892 H       5 HOH   0.0000 
 16 O      -14.5704     6.4327    22.1490 O.3     6 HOH   0.0000 
 17 H1     -13.6104     6.4327    22.1490 H       6 HOH   0.0000 
 18 H2     -14.8607     7.0797    22.7961 H       6 HOH   0.0000 
 19 O      -15.6860     0.3074    25.2713 O.3     7 HOH   0.0000 
 20 H1     -14.7260     0.3074    25.2713 H       7 HOH   0.0000 
 21 H2     -15.9763     0.9544    25.9184 H       7 HOH   0.0000 
 22 O       -5.1854    -1.6084    15.9847 O.3     8 HOH   0.0000 
 23 H1      -4.2254    -1.6084    15.9847 H       8 HOH   0.0000 
 24 H2      -5.4757    -0.9614    16.6318 H       8 HOH   0.0000 
 25 O      -15.0780    12.7870    10.8525 O.3     9 HOH   0.0000 
 26 H1     -14.1180    12.7870    10.8525 H       9 HOH   0.0000 
 27 H2     -15.3683    13.4341    11.4996 H       9 HOH   0.0000 
 28 O       -9.7959    -7.2476    12.0079 O.3    10 HOH   0.0000 
 29 H1      -8.8359    -7.2476    12.0079 H      10 HOH   0.0000 
 30 H2     -10.0861    -6.6005    12.6549 H      10 HOH   0.0000 
 31 O       -2.7081    15.0335    25.3439 O.3    11 HOH   0.0000 
 32 H1      -1.7481    15.0335    25.3439 H      11 HOH   0.0000 
 33 H2      -2.9984    15.6805    25.9910 H      11 HOH   0.0000 
 34 O       -6.3714     9.7377    33.7447 O.3    12 HOH   0.0000 
 35 H1      -5.4114     9.7377    33.7447 H      12 HOH   0.0000 
 36 H2      -6.6616    10.3847    34.3917 H      12 HOH   0.0000 
 37 O       -4.1109    -0.0091    18.7466 O.3    13 HOH   0.0000 
 38 H1      -3.1509    -0.0091    18.7466 H      13 HOH   0.0000 
 39 H2      -4.4012     0.6380    19.3936 H      13 HOH   0.0000 
 40 O      -13.1785    20.1658    46.3050 O.3    14 HOH   0.0000 
 41 H1     -12.2185    20.1658    46.3050 H      14 HOH   0.0000 
 42 H2     -13.4688    20.8129    46.9520 H      14 HOH   0.0000 
 43 O      -16.2042     9.6202    12.9443 O.3    15 HOH   0.0000 
 44 H1     -15.2442     9.6202    12.9443 H      15 HOH   0.0000 
 45 H2     -16.4945    10.2672    13.5914 H      15 HOH   0.0000 
 46 O       -1.8872    29.8499    35.7473 O.3    16 HOH   0.0000 
 47 H1      -0.9272    29.8499    35.7473 H      16 HOH   0.0000 
 48 H2      -2.1775    30.4970    36.3944 H      16 HOH   0.0000 
 49 O       -4.9348    16.5763    14.4523 O.3    17 HOH   0.0000 
 50 H1      -3.9748    16.5763    14.4523 H      17 HOH   0.0000 
 51 H2      -5.2251    17.2233    15.0994 H      17 HOH   0.0000 
 52 O        9.5368    16.7037    19.4097 O.3    18 HOH   0.0000 
 53 H1      10.4968    16.7037    19.4097 H      18 HOH   0.0000 
 54 H2       9.2466    17.3508    20.0568 H      18 HOH   0.0000 
 55 O      -17.8260     9.8688    17.7616 O.3    19 HOH   0.0000 
 56 H1     -16.8660     9.8688    17.7616 H      19 HOH   0.0000 
 57 H2     -18.1163    10.5159    18.4086 H      19 HOH   0.0000 
 58 O       -3.8550     3.4028    27.3302 O.3    20 HOH   0.0000 
 59 H1      -2.8950     3.4028    27.3302 H      20 HOH   0.0000 
 60 H2      -4.1452     4.0499    27.9772 H      20 HOH   0.0000 
 61 O       -2.2210    11.3731    25.2559 O.3    21 HOH   0.0000 
 62 H1      -1.2610    11.3731    25.2559 H      21 HOH   0.0000 
 63 H2      -2.5112    12.0201    25.9030 H      21 HOH   0.0000 
 64 O      -19.5507    16.7278    32.5252 O.3    22 HOH   0.0000 
 65 H1     -18.5907    16.7278    32.5252 H      22 HOH   0.0000 
 66 H2     -19.8410    17.3749    33.1722 H      22 HOH   0.0000 
 67 O        7.9318    11.4135    15.5919 O.3    23 HOH   0.0000 
 68 H1       8.8918    11.4135    15.5919 H      23 HOH   0.0000 
 69 H2       7.6415    12.0606    16.2390 H      23 HOH   0.0000 
 70 O       -0.7769     2.8051    26.4636 O.3    24 HOH   0.0000 
 71 H1       0.1831     2.8051    26.4636 H      24 HOH   0.0000 
 72 H2      -1.0672     3.4521    27.1106 H      24 HOH   0.0000 
 73 O      -15.5083     4.9064    40.2153 O.3    25 HOH   0.0000 
 74 H1     -14.5483     4.9064    40.2153 H      25 HOH   0.0000 
 75 H2     -15.7986     5.5534    40.8623 H      25 HOH   0.0000 
 76 O      -25.3139    17.9672    46.1072 O.3    26 HOH   0.0000 
 77 H1     -24.3539    17.9672    46.1072 H      26 HOH   0.0000 
 78 H2     -25.6042    18.6143    46.7542 H      26 HOH   0.0000 
 79 O      -21.9267    33.8834    30.7658 O.3    27 HOH   0.0000 
 80 H1     -20.9667    33.8834    30.7658 H      27 HOH   0.0000 
 81 H2     -22.2170    34.5305    31.4129 H      27 HOH   0.0000 
 82 O      -24.5943     4.8711    23.8795 O.3    28 HOH   0.0000 
 83 H1     -23.6343     4.8711    23.8795 H      28 HOH   0.0000 
 84 H2     -24.8845     5.5181    24.5265 H      28 HOH   0.0000 
 85 O      -15.0948    -1.6510    27.1477 O.3    29 HOH   0.0000 
 86 H1     -14.1348    -1.6510    27.1477 H      29 HOH   0.0000 
 87 H2     -15.3851    -1.0039    27.7948 H      29 HOH   0.0000 
 88 O       -9.5862     6.6580    33.8746 O.3    30 HOH   0.0000 
 89 H1      -8.6262     6.6580    33.8746 H      30 HOH   0.0000 
 90 H2      -9.8765     7.3050    34.5216 H      30 HOH   0.0000 
 91 O       -3.1917    25.9407    20.0672 O.3    31 HOH   0.0000 
 92 H1      -2.2317    25.9407    20.0672 H      31 HOH   0.0000 
 93 H2      -3.4820    26.5878    20.7142 H      31 HOH   0.0000 
 94 O      -23.8969    16.1500    34.4877 O.3    32 HOH   0.0000 
 95 H1     -22.9369    16.1500    34.4877 H      32 HOH   0.0000 
 96 H2     -24.1872    16.7971    35.1348 H      32 HOH   0.0000 
 97 O      -16.3547    14.1533    48.1200 O.3    33 HOH   0.0000 
 98 H1     -15.3947    14.1533    48.1200 H      33 HOH   0.0000 
 99 H2     -16.6450    14.8004    48.7671 H      33 HOH   0.0000 
100 O      -18.9188    14.3056    31.7584 O.3    34 HOH   0.0000 
101 H1     -17.9588    14.3056    31.7584 H      34 HOH   0.0000 
102 H2     -19.2091    14.9526    32.4055 H      34 HOH   0.0000 
103 O      -32.6603    24.2422    35.6590 O.3    35 HOH   0.0000 
104 H1     -31.7003    24.2422    35.6590 H      35 HOH   0.0000 
105 H2     -32.9505    24.8893    36.3060 H      35 HOH   0.0000 
106 O       -1.9036    27.1383    15.8602 O.3    36 HOH   0.0000 
107 H1      -0.9436    27.1383    15.8602 H      36 HOH   0.0000 
108 H2      -2.1938    27.7854    16.5073 H      36 HOH   0.0000 
109 O       -9.6347    24.3065    17.2717 O.3    37 HOH   0.0000 
110 H1      -8.6747    24.3065    17.2717 H      37 HOH   0.0000 
111 H2      -9.9250    24.9535    17.9187 H      37 HOH   0.0000 
112 O      -21.3198     8.3078    47.0819 O.3    38 HOH   0.0000 
113 H1     -20.3598     8.3078    47.0819 H      38 HOH   0.0000 
114 H2     -21.6101     8.9549    47.7290 H      38 HOH   0.0000 
115 O       -8.1310    -7.3497    14.2934 O.3    39 HOH   0.0000 
116 H1      -7.1710    -7.3497    14.2934 H      39 HOH   0.0000 
117 H2      -8.4213    -6.7026    14.9404 H      39 HOH   0.0000 
118 O      -33.3255    26.8559    39.0355 O.3    40 HOH   0.0000 
119 H1     -32.3655    26.8559    39.0355 H      40 HOH   0.0000 
120 H2     -33.6158    27.5029    39.6826 H      40 HOH   0.0000 
121 O       -4.2669    29.6962    38.4974 O.3    41 HOH   0.0000 
122 H1      -3.3069    29.6962    38.4974 H      41 HOH   0.0000 
123 H2      -4.5572    30.3432    39.1445 H      41 HOH   0.0000 
124 O        4.7556    31.5323    13.3189 O.3    42 HOH   0.0000 
125 H1       5.7156    31.5323    13.3189 H      42 HOH   0.0000 
126 H2       4.4653    32.1794    13.9659 H      42 HOH   0.0000 
127 O      -20.8957     4.1743    20.1470 O.3    43 HOH   0.0000 
128 H1     -19.9357     4.1743    20.1470 H      43 HOH   0.0000 
129 H2     -21.1860     4.8213    20.7941 H      43 HOH   0.0000 
130 O      -16.0593    29.9319    24.6433 O.3    44 HOH   0.0000 
131 H1     -15.0993    29.9319    24.6433 H      44 HOH   0.0000 
132 H2     -16.3495    30.5790    25.2904 H      44 HOH   0.0000 
133 O      -20.9199    25.7504    21.3104 O.3    45 HOH   0.0000 
134 H1     -19.9599    25.7504    21.3104 H      45 HOH   0.0000 
135 H2     -21.2101    26.3975    21.9575 H      45 HOH   0.0000 
136 O      -17.2549     7.7036    43.3339 O.3    46 HOH   0.0000 
137 H1     -16.2949     7.7036    43.3339 H      46 HOH   0.0000 
138 H2     -17.5452     8.3506    43.9809 H      46 HOH   0.0000 
139 O        3.4111    22.8343    12.9924 O.3    47 HOH   0.0000 
140 H1       4.3711    22.8343    12.9924 H      47 HOH   0.0000 
141 H2       3.1209    23.4814    13.6394 H      47 HOH   0.0000 
142 O       -5.6811    -4.3766    14.7124 O.3    48 HOH   0.0000 
143 H1      -4.7211    -4.3766    14.7124 H      48 HOH   0.0000 
144 H2      -5.9714    -3.7296    15.3595 H      48 HOH   0.0000 
145 O       -3.1340    11.5527    27.8097 O.3    49 HOH   0.0000 
146 H1      -2.1740    11.5527    27.8097 H      49 HOH   0.0000 
147 H2      -3.4243    12.1998    28.4568 H      49 HOH   0.0000 
148 O       12.8951    31.5300    31.8459 O.3    50 HOH   0.0000 
149 H1      13.8551    31.5300    31.8459 H      50 HOH   0.0000 
150 H2      12.6048    32.1771    32.4929 H      50 HOH   0.0000 
151 O      -31.4110    20.9517    35.4199 O.3    51 HOH   0.0000 
152 H1     -30.4510    20.9517    35.4199 H      51 HOH   0.0000 
153 H2     -31.7012    21.5987    36.0670 H      51 HOH   0.0000 
154 O        7.4667    24.8646    13.7865 O.3    52 HOH   0.0000 
155 H1       8.4267    24.8646    13.7865 H      52 HOH   0.0000 
156 H2       7.1764    25.5116    14.4335 H      52 HOH   0.0000 
157 O      -22.2474    14.5679    18.4242 O.3    53 HOH   0.0000 
158 H1     -21.2874    14.5679    18.4242 H      53 HOH   0.0000 
159 H2     -22.5377    15.2150    19.0713 H      53 HOH   0.0000 
160 O        2.0539    29.1471    35.7027 O.3    54 HOH   0.0000 
161 H1       3.0139    29.1471    35.7027 H      54 HOH   0.0000 
162 H2       1.7636    29.7941    36.3498 H      54 HOH   0.0000 
163 O      -12.9753    30.3469    28.7742 O.3    55 HOH   0.0000 
164 H1     -12.0153    30.3469    28.7742 H      55 HOH   0.0000 
165 H2     -13.2656    30.9939    29.4212 H      55 HOH   0.0000 
166 O        7.6021     8.7749    16.2266 O.3    56 HOH   0.0000 
167 H1       8.5621     8.7749    16.2266 H      56 HOH   0.0000 
168 H2       7.3118     9.4220    16.8737 H      56 HOH   0.0000 
169 O        5.0995    19.2145    13.3767 O.3    57 HOH   0.0000 
170 H1       6.0595    19.2145    13.3767 H      57 HOH   0.0000 
171 H2       4.8092    19.8616    14.0238 H      57 HOH   0.0000 
172 O      -26.6426    14.5966    40.5631 O.3    58 HOH   0.0000 
173 H1     -25.6826    14.5966    40.5631 H      58 HOH   0.0000 
174 H2     -26.9329    15.2436    41.2102 H      58 HOH   0.0000 
175 O        1.7586     4.1176    22.3837 O.3    59 HOH   0.0000 
176 H1       2.7186     4.1176    22.3837 H      59 HOH   0.0000 
177 H2       1.4684     4.7647    23.0308 H      59 HOH   0.0000 
178 O       -8.2774    25.5447    46.4284 O.3    60 HOH   0.0000 
179 H1      -7.3174    25.5447    46.4284 H      60 HOH   0.0000 
180 H2      -8.5677    26.1917    47.0755 H      60 HOH   0.0000 
181 O        6.1201    11.4740    12.9164 O.3    61 HOH   0.0000 
182 H1       7.0801    11.4740    12.9164 H      61 HOH   0.0000 
183 H2       5.8298    12.1210    13.5635 H      61 HOH   0.0000 
184 O        6.6032    24.4698    16.3483 O.3    62 HOH   0.0000 
185 H1       7.5632    24.4698    16.3483 H      62 HOH   0.0000 
186 H2       6.3129    25.1168    16.9953 H      62 HOH   0.0000 
187 O      -26.8515    30.8938    30.2122 O.3    63 HOH   0.0000 
188 H1     -25.8915    30.8938    30.2122 H      63 HOH   0.0000 
189 H2     -27.1418    31.5409    30.8593 H      63 HOH   0.0000 
190 O      -29.1386    15.8898    27.8581 O.3    64 HOH   0.0000 
191 H1     -28.1786    15.8898    27.8581 H      64 HOH   0.0000 
192 H2     -29.4289    16.5369    28.5052 H      64 HOH   0.0000 
193 O      -14.8443    18.3544    47.7668 O.3    65 HOH   0.0000 
194 H1     -13.8843    18.3544    47.7668 H      65 HOH   0.0000 
195 H2     -15.1346    19.0014    48.4139 H      65 HOH   0.0000 
196 O      -13.9013    28.2930    17.4911 O.3    66 HOH   0.0000 
197 H1     -12.9413    28.2930    17.4911 H      66 HOH   0.0000 
198 H2     -14.1915    28.9400    18.1381 H      66 HOH   0.0000 
199 O        2.8151    32.7839    35.1474 O.3    67 HOH   0.0000 
200 H1       3.7751    32.7839    35.1474 H      67 HOH   0.0000 
201 H2       2.5248    33.4310    35.7944 H      67 HOH   0.0000 
202 O        1.1693    28.9341    15.1194 O.3    68 HOH   0.0000 
203 H1       2.1293    28.9341    15.1194 H      68 HOH   0.0000 
204 H2       0.8790    29.5812    15.7664 H      68 HOH   0.0000 
205 O       -6.4119    34.1533    31.6648 O.3    69 HOH   0.0000 
206 H1      -5.4519    34.1533    31.6648 H      69 HOH   0.0000 
207 H2      -6.7021    34.8003    32.3119 H      69 HOH   0.0000 
208 O        1.7207     8.2096    19.2474 O.3    70 HOH   0.0000 
209 H1       2.6807     8.2096    19.2474 H      70 HOH   0.0000 
210 H2       1.4305     8.8566    19.8945 H      70 HOH   0.0000 
211 O      -19.2836    15.3878    51.2769 O.3    71 HOH   0.0000 
212 H1     -18.3236    15.3878    51.2769 H      71 HOH   0.0000 
213 H2     -19.5739    16.0349    51.9240 H      71 HOH   0.0000 
214 O        7.0029    29.7089    24.3663 O.3    72 HOH   0.0000 
215 H1       7.9629    29.7089    24.3663 H      72 HOH   0.0000 
216 H2       6.7126    30.3559    25.0134 H      72 HOH   0.0000 
217 O       -4.4088    12.7905    21.2124 O.3    73 HOH   0.0000 
218 H1      -3.4488    12.7905    21.2124 H      73 HOH   0.0000 
219 H2      -4.6991    13.4375    21.8594 H      73 HOH   0.0000 
220 O        7.4765    24.3018    23.7093 O.3    74 HOH   0.0000 
221 H1       8.4365    24.3018    23.7093 H      74 HOH   0.0000 
222 H2       7.1863    24.9488    24.3563 H      74 HOH   0.0000 
223 O      -24.5259    27.7932    23.8936 O.3    75 HOH   0.0000 
224 H1     -23.5659    27.7932    23.8936 H      75 HOH   0.0000 
225 H2     -24.8161    28.4402    24.5406 H      75 HOH   0.0000 
226 O        3.4704    30.5431    18.7632 O.3    76 HOH   0.0000 
227 H1       4.4304    30.5431    18.7632 H      76 HOH   0.0000 
228 H2       3.1801    31.1902    19.4102 H      76 HOH   0.0000 
229 O       -8.2625    29.5950    40.3502 O.3    77 HOH   0.0000 
230 H1      -7.3025    29.5950    40.3502 H      77 HOH   0.0000 
231 H2      -8.5528    30.2420    40.9973 H      77 HOH   0.0000 
232 O      -23.7209    12.6308    38.2659 O.3    78 HOH   0.0000 
233 H1     -22.7609    12.6308    38.2659 H      78 HOH   0.0000 
234 H2     -24.0112    13.2778    38.9129 H      78 HOH   0.0000 
235 O       -0.0644    26.9394    47.3188 O.3    79 HOH   0.0000 
236 H1       0.8956    26.9394    47.3188 H      79 HOH   0.0000 
237 H2      -0.3547    27.5865    47.9659 H      79 HOH   0.0000 
238 O      -19.3102    34.3265    29.3050 O.3    80 HOH   0.0000 
239 H1     -18.3502    34.3265    29.3050 H      80 HOH   0.0000 
240 H2     -19.6005    34.9736    29.9521 H      80 HOH   0.0000 
241 O       -2.0205    35.2815    29.6740 O.3    81 HOH   0.0000 
242 H1      -1.0605    35.2815    29.6740 H      81 HOH   0.0000 
243 H2      -2.3108    35.9285    30.3211 H      81 HOH   0.0000 
244 O      -13.8940    22.0323    49.6783 O.3    82 HOH   0.0000 
245 H1     -12.9340    22.0323    49.6783 H      82 HOH   0.0000 
246 H2     -14.1843    22.6794    50.3253 H      82 HOH   0.0000 
247 O       -5.8992    23.9794    46.7362 O.3    83 HOH   0.0000 
248 H1      -4.9392    23.9794    46.7362 H      83 HOH   0.0000 
249 H2      -6.1894    24.6265    47.3832 H      83 HOH   0.0000 
250 O      -16.9257     6.5035    45.9250 O.3    84 HOH   0.0000 
251 H1     -15.9657     6.5035    45.9250 H      84 HOH   0.0000 
252 H2     -17.2160     7.1505    46.5720 H      84 HOH   0.0000 
253 O       -7.4437    12.9778    44.6087 O.3    85 HOH  -0.8340 
254 H1      -7.9934    12.9542    43.8255 H      85 HOH   0.4170 
255 H2      -7.5528    13.8646    44.9519 H      85 HOH   0.4170 
256 O        6.8546    22.3692    28.5021 O.3    86 HOH   0.0000 
257 H1       7.8146    22.3692    28.5021 H      86 HOH   0.0000 
258 H2       6.5643    23.0162    29.1491 H      86 HOH   0.0000 
259 O      -10.6188    30.9483    40.8860 O.3    87 HOH   0.0000 
260 H1      -9.6588    30.9483    40.8860 H      87 HOH   0.0000 
261 H2     -10.9090    31.5954    41.5331 H      87 HOH   0.0000 
262 O        0.3934    11.6931    27.5346 O.3    88 HOH   0.0000 
263 H1       1.3534    11.6931    27.5346 H      88 HOH   0.0000 
264 H2       0.1031    12.3402    28.1817 H      88 HOH   0.0000 
265 O        5.1546    14.4545    26.8864 O.3    89 HOH   0.0000 
266 H1       6.1146    14.4545    26.8864 H      89 HOH   0.0000 
267 H2       4.8643    15.1016    27.5334 H      89 HOH   0.0000 
268 O        9.4799    33.4993    42.6173 O.3    90 HOH   0.0000 
269 H1      10.4399    33.4993    42.6173 H      90 HOH   0.0000 
270 H2       9.1896    34.1464    43.2644 H      90 HOH   0.0000 
271 O       -4.9640     7.2593    33.9382 O.3    91 HOH   0.0000 
272 H1      -4.0040     7.2593    33.9382 H      91 HOH   0.0000 
273 H2      -5.2543     7.9064    34.5852 H      91 HOH   0.0000 
274 O       -4.5026    -4.9838    26.3557 O.3    92 HOH   0.0000 
275 H1      -3.5426    -4.9838    26.3557 H      92 HOH   0.0000 
276 H2      -4.7928    -4.3368    27.0028 H      92 HOH   0.0000 
277 O      -10.5132    -8.0662    28.8877 O.3    93 HOH   0.0000 
278 H1      -9.5532    -8.0662    28.8877 H      93 HOH   0.0000 
279 H2     -10.8035    -7.4191    29.5348 H      93 HOH   0.0000 
280 O      -20.6653    14.4215    16.1541 O.3    94 HOH   0.0000 
281 H1     -19.7053    14.4215    16.1541 H      94 HOH   0.0000 
282 H2     -20.9555    15.0685    16.8011 H      94 HOH   0.0000 
283 O       -8.9027     4.8227     7.3975 O.3    95 HOH   0.0000 
284 H1      -7.9427     4.8227     7.3975 H      95 HOH   0.0000 
285 H2      -9.1929     5.4697     8.0445 H      95 HOH   0.0000 
286 O       -9.0737    -0.4365     9.9770 O.3    96 HOH   0.0000 
287 H1      -8.1137    -0.4365     9.9770 H      96 HOH   0.0000 
288 H2      -9.3639     0.2106    10.6241 H      96 HOH   0.0000 
289 O      -12.6961    24.2883    14.2266 O.3    97 HOH   0.0000 
290 H1     -11.7361    24.2883    14.2266 H      97 HOH   0.0000 
291 H2     -12.9863    24.9354    14.8736 H      97 HOH   0.0000 
292 O       -4.6430    -6.7611    15.1522 O.3    98 HOH   0.0000 
293 H1      -3.6830    -6.7611    15.1522 H      98 HOH   0.0000 
294 H2      -4.9333    -6.1140    15.7992 H      98 HOH   0.0000 
295 O        5.1215    11.7568    41.5788 O.3    99 HOH  -0.8340 
296 H1       4.4995    11.8852    42.2949 H      99 HOH   0.4170 
297 H2       5.9639    11.6238    42.0135 H      99 HOH   0.4170 
298 O       -7.2121     5.3514    42.3253 O.3   100 HOH   0.0000 
299 H1      -6.2521     5.3514    42.3253 H     100 HOH   0.0000 
300 H2      -7.5024     5.9985    42.9723 H     100 HOH   0.0000 
301 O       -4.2020     7.9086    39.7616 O.3   101 HOH   0.0000 
302 H1      -3.2420     7.9086    39.7616 H     101 HOH   0.0000 
303 H2      -4.4923     8.5556    40.4086 H     101 HOH   0.0000 
304 O      -32.5910    26.8954    33.3353 O.3   102 HOH   0.0000 
305 H1     -31.6310    26.8954    33.3353 H     102 HOH   0.0000 
306 H2     -32.8813    27.5425    33.9823 H     102 HOH   0.0000 
307 O      -30.3881    13.5938    28.6682 O.3   103 HOH   0.0000 
308 H1     -29.4281    13.5938    28.6682 H     103 HOH   0.0000 
309 H2     -30.6784    14.2409    29.3152 H     103 HOH   0.0000 
310 O       -3.7269    25.6016    17.2894 O.3   104 HOH   0.0000 
311 H1      -2.7669    25.6016    17.2894 H     104 HOH   0.0000 
312 H2      -4.0172    26.2486    17.9364 H     104 HOH   0.0000 
313 O      -23.7061    -2.6295    24.4487 O.3   105 HOH   0.0000 
314 H1     -22.7461    -2.6295    24.4487 H     105 HOH   0.0000 
315 H2     -23.9964    -1.9825    25.0957 H     105 HOH   0.0000 
316 O      -27.8173    17.3616    40.2104 O.3   106 HOH   0.0000 
317 H1     -26.8573    17.3616    40.2104 H     106 HOH   0.0000 
318 H2     -28.1076    18.0086    40.8574 H     106 HOH   0.0000 
319 O       -3.6927    12.7358    23.7343 O.3   107 HOH   0.0000 
320 H1      -2.7327    12.7358    23.7343 H     107 HOH   0.0000 
321 H2      -3.9830    13.3828    24.3813 H     107 HOH   0.0000 
322 O       -7.4832     5.0118    34.3395 O.3   108 HOH   0.0000 
323 H1      -6.5232     5.0118    34.3395 H     108 HOH   0.0000 
324 H2      -7.7735     5.6588    34.9866 H     108 HOH   0.0000 
325 O        1.9274     6.1695    20.8293 O.3   109 HOH   0.0000 
326 H1       2.8874     6.1695    20.8293 H     109 HOH   0.0000 
327 H2       1.6371     6.8166    21.4763 H     109 HOH   0.0000 
328 O      -14.8207    26.4651    42.8352 O.3   110 HOH   0.0000 
329 H1     -13.8607    26.4651    42.8352 H     110 HOH   0.0000 
330 H2     -15.1110    27.1122    43.4822 H     110 HOH   0.0000 
331 O      -22.1432    16.0953    32.5103 O.3   111 HOH   0.0000 
332 H1     -21.1832    16.0953    32.5103 H     111 HOH   0.0000 
333 H2     -22.4334    16.7423    33.1574 H     111 HOH   0.0000 
334 O      -10.4459    30.9256    28.5655 O.3   112 HOH   0.0000 
335 H1      -9.4859    30.9256    28.5655 H     112 HOH   0.0000 
336 H2     -10.7361    31.5726    29.2125 H     112 HOH   0.0000 
337 O      -26.4865    17.0692    33.8512 O.3   113 HOH   0.0000 
338 H1     -25.5265    17.0692    33.8512 H     113 HOH   0.0000 
339 H2     -26.7768    17.7163    34.4982 H     113 HOH   0.0000 
340 O       -5.8781    22.6465    14.4399 O.3   114 HOH   0.0000 
341 H1      -4.9181    22.6465    14.4399 H     114 HOH   0.0000 
342 H2      -6.1684    23.2935    15.0870 H     114 HOH   0.0000 
343 O        2.4129    31.3502    11.7488 O.3   115 HOH   0.0000 
344 H1       3.3729    31.3502    11.7488 H     115 HOH   0.0000 
345 H2       2.1226    31.9973    12.3958 H     115 HOH   0.0000 
346 O       -7.9584    24.2574    15.1693 O.3   116 HOH   0.0000 
347 H1      -6.9984    24.2574    15.1693 H     116 HOH   0.0000 
348 H2      -8.2487    24.9044    15.8163 H     116 HOH   0.0000 
349 O      -24.4106    13.4945    35.5063 O.3   117 HOH   0.0000 
350 H1     -23.4506    13.4945    35.5063 H     117 HOH   0.0000 
351 H2     -24.7008    14.1416    36.1533 H     117 HOH   0.0000 
352 O       -4.9253     1.7387    29.4516 O.3   118 HOH   0.0000 
353 H1      -3.9653     1.7387    29.4516 H     118 HOH   0.0000 
354 H2      -5.2155     2.3858    30.0987 H     118 HOH   0.0000 
355 O      -17.9422     8.5487    15.1625 O.3   119 HOH   0.0000 
356 H1     -16.9822     8.5487    15.1625 H     119 HOH   0.0000 
357 H2     -18.2325     9.1958    15.8095 H     119 HOH   0.0000 
358 O       -6.0281     4.2078     8.7960 O.3   120 HOH   0.0000 
359 H1      -5.0681     4.2078     8.7960 H     120 HOH   0.0000 
360 H2      -6.3184     4.8549     9.4430 H     120 HOH   0.0000 
361 O       -3.9709    12.0623    43.9618 O.3   121 HOH  -0.8340 
362 H1      -4.8955    12.0880    44.2084 H     121 HOH   0.4170 
363 H2      -3.7426    11.1329    43.9832 H     121 HOH   0.4170 
364 O      -13.3545    28.1218    34.8017 O.3   122 HOH   0.0000 
365 H1     -12.3945    28.1218    34.8017 H     122 HOH   0.0000 
366 H2     -13.6447    28.7688    35.4487 H     122 HOH   0.0000 
367 O       -5.2304    -8.6539    13.4065 O.3   123 HOH   0.0000 
368 H1      -4.2704    -8.6539    13.4065 H     123 HOH   0.0000 
369 H2      -5.5206    -8.0068    14.0536 H     123 HOH   0.0000 
370 O        1.8474    21.9398    11.0045 O.3   124 HOH   0.0000 
371 H1       2.8074    21.9398    11.0045 H     124 HOH   0.0000 
372 H2       1.5571    22.5869    11.6515 H     124 HOH   0.0000 
373 O      -12.0886     0.9328    36.0123 O.3   125 HOH   0.0000 
374 H1     -11.1286     0.9328    36.0123 H     125 HOH   0.0000 
375 H2     -12.3789     1.5799    36.6593 H     125 HOH   0.0000 
376 O       -3.2425    32.2016    38.3358 O.3   126 HOH   0.0000 
377 H1      -2.2825    32.2016    38.3358 H     126 HOH   0.0000 
378 H2      -3.5327    32.8487    38.9829 H     126 HOH   0.0000 
379 O       -1.1033    11.6851    29.7511 O.3   127 HOH   0.0000 
380 H1      -0.1433    11.6851    29.7511 H     127 HOH   0.0000 
381 H2      -1.3935    12.3321    30.3982 H     127 HOH   0.0000 
382 O        5.4551    32.0188    17.0765 O.3   128 HOH   0.0000 
383 H1       6.4151    32.0188    17.0765 H     128 HOH   0.0000 
384 H2       5.1648    32.6659    17.7235 H     128 HOH   0.0000 
385 O        9.3961    32.7795    29.9966 O.3   129 HOH   0.0000 
386 H1      10.3561    32.7795    29.9966 H     129 HOH   0.0000 
387 H2       9.1058    33.4266    30.6437 H     129 HOH   0.0000 
388 O      -27.1114    12.8582    35.5189 O.3   130 HOH   0.0000 
389 H1     -26.1514    12.8582    35.5189 H     130 HOH   0.0000 
390 H2     -27.4017    13.5052    36.1660 H     130 HOH   0.0000 
391 O      -28.9298    18.0580    37.8819 O.3   131 HOH   0.0000 
392 H1     -27.9698    18.0580    37.8819 H     131 HOH   0.0000 
393 H2     -29.2201    18.7051    38.5289 H     131 HOH   0.0000 
394 O        5.2208    17.5945    37.4210 O.3   132 HOH  -0.8340 
395 H1       5.5231    18.4975    37.3242 H     132 HOH   0.4170 
396 H2       4.4694    17.6548    38.0110 H     132 HOH   0.4170 
397 O       16.4479    17.7312    28.2912 O.3   133 HOH   0.0000 
398 H1      17.4079    17.7312    28.2912 H     133 HOH   0.0000 
399 H2      16.1576    18.3782    28.9383 H     133 HOH   0.0000 
400 O      -21.5627    13.4033    32.3306 O.3   134 HOH   0.0000 
401 H1     -20.6027    13.4033    32.3306 H     134 HOH   0.0000 
402 H2     -21.8530    14.0503    32.9777 H     134 HOH   0.0000 
403 O      -28.8022     6.6673    31.6405 O.3   135 HOH   0.0000 
404 H1     -27.8422     6.6673    31.6405 H     135 HOH   0.0000 
405 H2     -29.0924     7.3143    32.2876 H     135 HOH   0.0000 
406 O      -11.6550    27.1394    45.5083 O.3   136 HOH   0.0000 
407 H1     -10.6950    27.1394    45.5083 H     136 HOH   0.0000 
408 H2     -11.9453    27.7865    46.1553 H     136 HOH   0.0000 
409 O       18.1860    11.4683    32.1753 O.3   137 HOH   0.0000 
410 H1      19.1460    11.4683    32.1753 H     137 HOH   0.0000 
411 H2      17.8958    12.1154    32.8223 H     137 HOH   0.0000 
412 O       -8.7812     7.5132     7.3570 O.3   138 HOH   0.0000 
413 H1      -7.8212     7.5132     7.3570 H     138 HOH   0.0000 
414 H2      -9.0714     8.1603     8.0040 H     138 HOH   0.0000 
415 O        2.6521    35.4617    34.7252 O.3   139 HOH   0.0000 
416 H1       3.6121    35.4617    34.7252 H     139 HOH   0.0000 
417 H2       2.3618    36.1087    35.3722 H     139 HOH   0.0000 
418 O      -12.9443    27.1838    14.7496 O.3   140 HOH   0.0000 
419 H1     -11.9843    27.1838    14.7496 H     140 HOH   0.0000 
420 H2     -13.2345    27.8308    15.3967 H     140 HOH   0.0000 
421 O        7.2839    13.0691    10.9887 O.3   141 HOH   0.0000 
422 H1       8.2439    13.0691    10.9887 H     141 HOH   0.0000 
423 H2       6.9937    13.7161    11.6358 H     141 HOH   0.0000 
424 O      -25.1997    10.4761    37.5294 O.3   142 HOH   0.0000 
425 H1     -24.2397    10.4761    37.5294 H     142 HOH   0.0000 
426 H2     -25.4900    11.1232    38.1764 H     142 HOH   0.0000 
427 O      -15.0194    14.6672     7.1257 O.3   143 HOH   0.0000 
428 H1     -14.0594    14.6672     7.1257 H     143 HOH   0.0000 
429 H2     -15.3097    15.3142     7.7727 H     143 HOH   0.0000 
430 O        7.6435     7.9881    25.6852 O.3   144 HOH   0.0000 
431 H1       8.6035     7.9881    25.6852 H     144 HOH   0.0000 
432 H2       7.3533     8.6352    26.3323 H     144 HOH   0.0000 
433 O       -3.5634    17.6700    50.8311 O.3   145 HOH  -0.8340 
434 H1      -4.1497    17.6613    50.0745 H     145 HOH   0.4170 
435 H2      -4.1454    17.5878    51.5866 H     145 HOH   0.4170 
436 O       -8.3427    34.0570    29.5820 O.3   146 HOH   0.0000 
437 H1      -7.3827    34.0570    29.5820 H     146 HOH   0.0000 
438 H2      -8.6329    34.7041    30.2291 H     146 HOH   0.0000 
439 O        5.5967    15.5956    30.1602 O.3   147 HOH   0.0000 
440 H1       6.5567    15.5956    30.1602 H     147 HOH   0.0000 
441 H2       5.3064    16.2426    30.8072 H     147 HOH   0.0000 
442 O      -15.1595    11.0933     8.6437 O.3   148 HOH   0.0000 
443 H1     -14.1995    11.0933     8.6437 H     148 HOH   0.0000 
444 H2     -15.4497    11.7403     9.2908 H     148 HOH   0.0000 
445 O       -3.3442    -1.2082    14.0982 O.3   149 HOH   0.0000 
446 H1      -2.3842    -1.2082    14.0982 H     149 HOH   0.0000 
447 H2      -3.6345    -0.5611    14.7452 H     149 HOH   0.0000 
448 O       -1.1089    27.2788    52.5179 O.3   150 HOH   0.0000 
449 H1      -0.1489    27.2788    52.5179 H     150 HOH   0.0000 
450 H2      -1.3992    27.9258    53.1650 H     150 HOH   0.0000 
451 O      -17.9710    19.5806    15.9218 O.3   151 HOH   0.0000 
452 H1     -17.0110    19.5806    15.9218 H     151 HOH   0.0000 
453 H2     -18.2612    20.2276    16.5689 H     151 HOH   0.0000 
454 O       -1.4431    -0.0821    18.4770 O.3   152 HOH   0.0000 
455 H1      -0.4831    -0.0821    18.4770 H     152 HOH   0.0000 
456 H2      -1.7334     0.5649    19.1240 H     152 HOH   0.0000 
457 O      -23.4755     4.4158    21.0008 O.3   153 HOH   0.0000 
458 H1     -22.5155     4.4158    21.0008 H     153 HOH   0.0000 
459 H2     -23.7658     5.0629    21.6479 H     153 HOH   0.0000 
460 O       -9.4216    -4.4142     7.7714 O.3   154 HOH   0.0000 
461 H1      -8.4616    -4.4142     7.7714 H     154 HOH   0.0000 
462 H2      -9.7119    -3.7672     8.4184 H     154 HOH   0.0000 
463 O       10.3626    26.7432    26.7306 O.3   155 HOH   0.0000 
464 H1      11.3226    26.7432    26.7306 H     155 HOH   0.0000 
465 H2      10.0724    27.3903    27.3776 H     155 HOH   0.0000 
466 O       -9.4604    -2.1139    31.3626 O.3   156 HOH   0.0000 
467 H1      -8.5004    -2.1139    31.3626 H     156 HOH   0.0000 
468 H2      -9.7507    -1.4669    32.0096 H     156 HOH   0.0000 
469 O      -10.9003    22.0304    51.3516 O.3   157 HOH   0.0000 
470 H1      -9.9403    22.0304    51.3516 H     157 HOH   0.0000 
471 H2     -11.1906    22.6774    51.9987 H     157 HOH   0.0000 
472 O       -6.2417    26.5393    16.8290 O.3   158 HOH   0.0000 
473 H1      -5.2817    26.5393    16.8290 H     158 HOH   0.0000 
474 H2      -6.5320    27.1863    17.4761 H     158 HOH   0.0000 
475 O      -22.4911    11.6802    34.1598 O.3   159 HOH   0.0000 
476 H1     -21.5311    11.6802    34.1598 H     159 HOH   0.0000 
477 H2     -22.7814    12.3273    34.8069 H     159 HOH   0.0000 
478 O       -6.1371    20.2206    12.4730 O.3   160 HOH   0.0000 
479 H1      -5.1771    20.2206    12.4730 H     160 HOH   0.0000 
480 H2      -6.4273    20.8677    13.1201 H     160 HOH   0.0000 
481 O       -1.6108     2.3190    18.2377 O.3   161 HOH   0.0000 
482 H1      -0.6508     2.3190    18.2377 H     161 HOH   0.0000 
483 H2      -1.9010     2.9661    18.8847 H     161 HOH   0.0000 
484 O      -10.5870     8.9233     5.8017 O.3   162 HOH   0.0000 
485 H1      -9.6270     8.9233     5.8017 H     162 HOH   0.0000 
486 H2     -10.8773     9.5703     6.4488 H     162 HOH   0.0000 
487 O        6.0233    34.0271    18.3863 O.3   163 HOH   0.0000 
488 H1       6.9833    34.0271    18.3863 H     163 HOH   0.0000 
489 H2       5.7330    34.6742    19.0334 H     163 HOH   0.0000 
490 O       -5.3867    33.1102    36.9481 O.3   164 HOH   0.0000 
491 H1      -4.4267    33.1102    36.9481 H     164 HOH   0.0000 
492 H2      -5.6770    33.7572    37.5952 H     164 HOH   0.0000 
493 O      -10.6976    26.9961    16.0169 O.3   165 HOH   0.0000 
494 H1      -9.7376    26.9961    16.0169 H     165 HOH   0.0000 
495 H2     -10.9879    27.6432    16.6639 H     165 HOH   0.0000 
496 O       -2.1274    15.8594    14.2838 O.3   166 HOH   0.0000 
497 H1      -1.1674    15.8594    14.2838 H     166 HOH   0.0000 
498 H2      -2.4177    16.5064    14.9309 H     166 HOH   0.0000 
499 O      -15.8463    21.6612    13.6378 O.3   167 HOH   0.0000 
500 H1     -14.8863    21.6612    13.6378 H     167 HOH   0.0000 
501 H2     -16.1366    22.3083    14.2848 H     167 HOH   0.0000 
502 O       -7.9828    -2.6490    28.7210 O.3   168 HOH   0.0000 
503 H1      -7.0228    -2.6490    28.7210 H     168 HOH   0.0000 
504 H2      -8.2731    -2.0019    29.3680 H     168 HOH   0.0000 
505 O      -20.3201    28.1577    19.9820 O.3   169 HOH   0.0000 
506 H1     -19.3601    28.1577    19.9820 H     169 HOH   0.0000 
507 H2     -20.6104    28.8047    20.6291 H     169 HOH   0.0000 
508 O       -5.9102     3.9811    37.3879 O.3   170 HOH   0.0000 
509 H1      -4.9502     3.9811    37.3879 H     170 HOH   0.0000 
510 H2      -6.2004     4.6282    38.0350 H     170 HOH   0.0000 
511 O        6.4808    19.7136    30.4174 O.3   171 HOH   0.0000 
512 H1       7.4408    19.7136    30.4174 H     171 HOH   0.0000 
513 H2       6.1905    20.3607    31.0645 H     171 HOH   0.0000 
514 O       17.1136    31.2058    42.0962 O.3   172 HOH   0.0000 
515 H1      18.0736    31.2058    42.0962 H     172 HOH   0.0000 
516 H2      16.8234    31.8529    42.7432 H     172 HOH   0.0000 
517 O        5.3797    23.8548    31.2836 O.3   173 HOH  -0.8340 
518 H1       4.5208    23.5228    31.5451 H     173 HOH   0.4170 
519 H2       5.2378    24.7877    31.1233 H     173 HOH   0.4170 
520 O      -28.5981    14.8221    34.7776 O.3   174 HOH   0.0000 
521 H1     -27.6381    14.8221    34.7776 H     174 HOH   0.0000 
522 H2     -28.8883    15.4691    35.4246 H     174 HOH   0.0000 
523 O      -24.8318    31.1155    27.7876 O.3   175 HOH   0.0000 
524 H1     -23.8718    31.1155    27.7876 H     175 HOH   0.0000 
525 H2     -25.1220    31.7626    28.4346 H     175 HOH   0.0000 
526 O      -27.1438    18.9996    35.6747 O.3   176 HOH   0.0000 
527 H1     -26.1838    18.9996    35.6747 H     176 HOH   0.0000 
528 H2     -27.4341    19.6466    36.3218 H     176 HOH   0.0000 
@<TRIPOS>BOND
  1   1   2  1   
  2   1   3  1   
  3   4   5  1   
  4   4   6  1   
  5   7   8  1   
  6   7   9  1   
  7  10  11  1   
  8  10  12  1   
  9  13  14  1   
 10  13  15  1   
 11  16  17  1   
 12  16  18  1   
 13  19  20  1   
 14  19  21  1   
 15  22  23  1   
 16  22  24  1   
 17  25  26  1   
 18  25  27  1   
 19  28  29  1   
 20  28  30  1   
 21  31  32  1   
 22  31  33  1   
 23  34  35  1   
 24  34  36  1   
 25  37  38  1   
 26  37  39  1   
 27  40  41  1   
 28  40  42  1   
 29  43  44  1   
 30  43  45  1   
 31  46  47  1   
 32  46  48  1   
 33  49  50  1   
 34  49  51  1   
 35  52  53  1   
 36  52  54  1   
 37  55  56  1   
 38  55  57  1   
 39  58  59  1   
 40  58  60  1   
 41  61  62  1   
 42  61  63  1   
 43  64  65  1   
 44  64  66  1   
 45  67  68  1   
 46  67  69  1   
 47  70  71  1   
 48  70  72  1   
 49  73  74  1   
 50  73  75  1   
 51  76  77  1   
 52  76  78  1   
 53  79  80  1   
 54  79  81  1   
 55  82  83  1   
 56  82  84  1   
 57  85  86  1   
 58  85  87  1   
 59  88  89  1   
 60  88  90  1   
 61  91  92  1   
 62  91  93  1   
 63  94  95  1   
 64  94  96  1   
 65  97  98  1   
 66  97  99  1   
 67 100 101  1   
 68 100 102  1   
 69 103 104  1   
 70 103 105  1   
 71 106 107  1   
 72 106 108  1   
 73 109 110  1   
 74 109 111  1   
 75 112 113  1   
 76 112 114  1   
 77 115 116  1   
 78 115 117  1   
 79 118 119  1   
 80 118 120  1   
 81 121 122  1   
 82 121 123  1   
 83 124 125  1   
 84 124 126  1   
 85 127 128  1   
 86 127 129  1   
 87 130 131  1   
 88 130 132  1   
 89 133 134  1   
 90 133 135  1   
 91 136 137  1   
 92 136 138  1   
 93 139 140  1   
 94 139 141  1   
 95 142 143  1   
 96 142 144  1   
 97 145 146  1   
 98 145 147  1   
 99 148 149  1   
100 148 150  1   
101 151 152  1   
102 151 153  1   
103 154 155  1   
104 154 156  1   
105 157 158  1   
106 157 159  1   
107 160 161  1   
108 160 162  1   
109 163 164  1   
110 163 165  1   
111 166 167  1   
112 166 168  1   
113 169 170  1   
114 169 171  1   
115 172 173  1   
116 172 174  1   
117 175 176  1   
118 175 177  1   
119 178 179  1   
120 178 180  1   
121 181 182  1   
122 181 183  1   
123 184 185  1   
124 184 186  1   
125 187 188  1   
126 187 189  1   
127 190 191  1   
128 190 192  1   
129 193 194  1   
130 193 195  1   
131 196 197  1   
132 196 198  1   
133 199 200  1   
134 199 201  1   
135 202 203  1   
136 202 204  1   
137 205 206  1   
138 205 207  1   
139 208 209  1   
140 208 210  1   
141 211 212  1   
142 211 213  1   
143 214 215  1   
144 214 216  1   
145 217 218  1   
146 217 219  1   
147 220 221  1   
148 220 222  1   
149 223 224  1   
150 223 225  1   
151 226 227  1   
152 226 228  1   
153 229 230  1   
154 229 231  1   
155 232 233  1   
156 232 234  1   
157 235 236  1   
158 235 237  1   
159 238 239  1   
160 238 240  1   
161 241 242  1   
162 241 243  1   
163 244 245  1   
164 244 246  1   
165 247 248  1   
166 247 249  1   
167 250 251  1   
168 250 252  1   
169 253 254  1   
170 253 255  1   
171 256 257  1   
172 256 258  1   
173 259 260  1   
174 259 261  1   
175 262 263  1   
176 262 264  1   
177 265 266  1   
178 265 267  1   
179 268 269  1   
180 268 270  1   
181 271 272  1   
182 271 273  1   
183 274 275  1   
184 274 276  1   
185 277 278  1   
186 277 279  1   
187 280 281  1   
188 280 282  1   
189 283 284  1   
190 283 285  1   
191 286 287  1   
192 286 288  1   
193 289 290  1   
194 289 291  1   
195 292 293  1   
196 292 294  1   
197 295 296  1   
198 295 297  1   
199 298 299  1   
200 298 300  1   
201 301 302  1   
202 301 303  1   
203 304 305  1   
204 304 306  1   
205 307 308  1   
206 307 309  1   
207 310 311  1   
208 310 312  1   
209 313 314  1   
210 313 315  1   
211 316 317  1   
212 316 318  1   
213 319 320  1   
214 319 321  1   
215 322 323  1   
216 322 324  1   
217 325 326  1   
218 325 327  1   
219 328 329  1   
220 328 330  1   
221 331 332  1   
222 331 333  1   
223 334 335  1   
224 334 336  1   
225 337 338  1   
226 337 339  1   
227 340 341  1   
228 340 342  1   
229 343 344  1   
230 343 345  1   
231 346 347  1   
232 346 348  1   
233 349 350  1   
234 349 351  1   
235 352 353  1   
236 352 354  1   
237 355 356  1   
238 355 357  1   
239 358 359  1   
240 358 360  1   
241 361 362  1   
242 361 363  1   
243 364 365  1   
244 364 366  1   
245 367 368  1   
246 367 369  1   
247 370 371  1   
248 370 372  1   
249 373 374  1   
250 373 375  1   
251 376 377  1   
252 376 378  1   
253 379 380  1   
254 379 381  1   
255 382 383  1   
256 382 384  1   
257 385 386  1   
258 385 387  1   
259 388 389  1   
260 388 390  1   
261 391 392  1   
262 391 393  1   
263 394 395  1   
264 394 396  1   
265 397 398  1   
266 397 399  1   
267 400 401  1   
268 400 402  1   
269 403 404  1   
270 403 405  1   
271 406 407  1   
272 406 408  1   
273 409 410  1   
274 409 411  1   
275 412 413  1   
276 412 414  1   
277 415 416  1   
278 415 417  1   
279 418 419  1   
280 418 420  1   
281 421 422  1   
282 421 423  1   
283 424 425  1   
284 424 426  1   
285 427 428  1   
286 427 429  1   
287 430 431  1   
288 430 432  1   
289 433 434  1   
290 433 435  1   
291 436 437  1   
292 436 438  1   
293 439 440  1   
294 439 441  1   
295 442 443  1   
296 442 444  1   
297 445 446  1   
298 445 447  1   
299 448 449  1   
300 448 450  1   
301 451 452  1   
302 451 453  1   
303 454 455  1   
304 454 456  1   
305 457 458  1   
306 457 459  1   
307 460 461  1   
308 460 462  1   
309 463 464  1   
310 463 465  1   
311 466 467  1   
312 466 468  1   
313 469 470  1   
314 469 471  1   
315 472 473  1   
316 472 474  1   
317 475 476  1   
318 475 477  1   
319 478 479  1   
320 478 480  1   
321 481 482  1   
322 481 483  1   
323 484 485  1   
324 484 486  1   
325 487 488  1   
326 487 489  1   
327 490 491  1   
328 490 492  1   
329 493 494  1   
330 493 495  1   
331 496 497  1   
332 496 498  1   
333 499 500  1   
334 499 501  1   
335 502 503  1   
336 502 504  1   
337 505 506  1   
338 505 507  1   
339 508 509  1   
340 508 510  1   
341 511 512  1   
342 511 513  1   
343 514 515  1   
344 514 516  1   
345 517 518  1   
346 517 519  1   
347 520 521  1   
348 520 522  1   
349 523 524  1   
350 523 525  1   
351 526 527  1   
352 526 528  1   
@<TRIPOS>SUBSTRUCTURE
  1 HOH   1 GROUP 4 B **** 0
  2 HOH   4 GROUP 4 B **** 0
  3 HOH   7 GROUP 4 B **** 0
  4 HOH  10 GROUP 4 B **** 0
  5 HOH  13 GROUP 4 B **** 0
  6 HOH  16 GROUP 4 B **** 0
  7 HOH  19 GROUP 4 B **** 0
  8 HOH  22 GROUP 4 B **** 0
  9 HOH  25 GROUP 4 B **** 0
 10 HOH  28 GROUP 4 B **** 0
 11 HOH  31 GROUP 4 B **** 0
 12 HOH  34 GROUP 4 B **** 0
 13 HOH  37 GROUP 4 B **** 0
 14 HOH  40 GROUP 4 B **** 0
 15 HOH  43 GROUP 4 B **** 0
 16 HOH  46 GROUP 4 B **** 0
 17 HOH  49 GROUP 4 B **** 0
 18 HOH  52 GROUP 4 B **** 0
 19 HOH  55 GROUP 4 B **** 0
 20 HOH  58 GROUP 4 B **** 0
 21 HOH  61 GROUP 4 B **** 0
 22 HOH  64 GROUP 4 B **** 0
 23 HOH  67 GROUP 4 B **** 0
 24 HOH  70 GROUP 4 B **** 0
 25 HOH  73 GROUP 4 B **** 0
 26 HOH  76 GROUP 4 B **** 0
 27 HOH  79 GROUP 4 B **** 0
 28 HOH  82 GROUP 4 B **** 0
 29 HOH  85 GROUP 4 B **** 0
 30 HOH  88 GROUP 4 B **** 0
 31 HOH  91 GROUP 4 B **** 0
 32 HOH  94 GROUP 4 B **** 0
 33 HOH  97 GROUP 4 B **** 0
 34 HOH 100 GROUP 4 B **** 0
 35 HOH 103 GROUP 4 B **** 0
 36 HOH 106 GROUP 4 B **** 0
 37 HOH 109 GROUP 4 B **** 0
 38 HOH 112 GROUP 4 B **** 0
 39 HOH 115 GROUP 4 B **** 0
 40 HOH 118 GROUP 4 B **** 0
 41 HOH 121 GROUP 4 B **** 0
 42 HOH 124 GROUP 4 B **** 0
 43 HOH 127 GROUP 4 B **** 0
 44 HOH 130 GROUP 4 B **** 0
 45 HOH 133 GROUP 4 B **** 0
 46 HOH 136 GROUP 4 B **** 0
 47 HOH 139 GROUP 4 B **** 0
 48 HOH 142 GROUP 4 B **** 0
 49 HOH 145 GROUP 4 B **** 0
 50 HOH 148 GROUP 4 B **** 0
 51 HOH 151 GROUP 4 B **** 0
 52 HOH 154 GROUP 4 B **** 0
 53 HOH 157 GROUP 4 B **** 0
 54 HOH 160 GROUP 4 B **** 0
 55 HOH 163 GROUP 4 B **** 0
 56 HOH 166 GROUP 4 B **** 0
 57 HOH 169 GROUP 4 B **** 0
 58 HOH 172 GROUP 4 B **** 0
 59 HOH 175 GROUP 4 B **** 0
 60 HOH 178 GROUP 4 B **** 0
 61 HOH 181 GROUP 4 B **** 0
 62 HOH 184 GROUP 4 B **** 0
 63 HOH 187 GROUP 4 B **** 0
 64 HOH 190 GROUP 4 B **** 0
 65 HOH 193 GROUP 4 B **** 0
 66 HOH 196 GROUP 4 B **** 0
 67 HOH 199 GROUP 4 B **** 0
 68 HOH 202 GROUP 4 B **** 0
 69 HOH 205 GROUP 4 B **** 0
 70 HOH 208 GROUP 4 B **** 0
 71 HOH 211 GROUP 4 B **** 0
 72 HOH 214 GROUP 4 B **** 0
 73 HOH 217 GROUP 4 B **** 0
 74 HOH 220 GROUP 4 B **** 0
 75 HOH 223 GROUP 4 B **** 0
 76 HOH 226 GROUP 4 B **** 0
 77 HOH 229 GROUP 4 B **** 0
 78 HOH 232 GROUP 4 B **** 0
 79 HOH 235 GROUP 4 B **** 0
 80 HOH 238 GROUP 4 B **** 0
 81 HOH 241 GROUP 4 B **** 0
 82 HOH 244 GROUP 4 B **** 0
 83 HOH 247 GROUP 4 B **** 0
 84 HOH 250 GROUP 4 B **** 0
 85 HOH 253 GROUP 4 B **** 0
 86 HOH 256 GROUP 4 B **** 0
 87 HOH 259 GROUP 4 B **** 0
 88 HOH 262 GROUP 4 B **** 0
 89 HOH 265 GROUP 4 B **** 0
 90 HOH 268 GROUP 4 B **** 0
 91 HOH 271 GROUP 4 B **** 0
 92 HOH 274 GROUP 4 B **** 0
 93 HOH 277 GROUP 4 B **** 0
 94 HOH 280 GROUP 4 B **** 0
 95 HOH 283 GROUP 4 B **** 0
 96 HOH 286 GROUP 4 B **** 0
 97 HOH 289 GROUP 4 B **** 0
 98 HOH 292 GROUP 4 B **** 0
 99 HOH 295 GROUP 4 B **** 0
100 HOH 298 GROUP 4 B **** 0
101 HOH 301 GROUP 4 B **** 0
102 HOH 304 GROUP 4 B **** 0
103 HOH 307 GROUP 4 B **** 0
104 HOH 310 GROUP 4 B **** 0
105 HOH 313 GROUP 4 B **** 0
106 HOH 316 GROUP 4 B **** 0
107 HOH 319 GROUP 4 B **** 0
108 HOH 322 GROUP 4 B **** 0
109 HOH 325 GROUP 4 B **** 0
110 HOH 328 GROUP 4 B **** 0
111 HOH 331 GROUP 4 B **** 0
112 HOH 334 GROUP 4 B **** 0
113 HOH 337 GROUP 4 B **** 0
114 HOH 340 GROUP 4 B **** 0
115 HOH 343 GROUP 4 B **** 0
116 HOH 346 GROUP 4 B **** 0
117 HOH 349 GROUP 4 B **** 0
118 HOH 352 GROUP 4 B **** 0
119 HOH 355 GROUP 4 B **** 0
120 HOH 358 GROUP 4 B **** 0
121 HOH 361 GROUP 4 B **** 0
122 HOH 364 GROUP 4 B **** 0
123 HOH 367 GROUP 4 B **** 0
124 HOH 370 GROUP 4 B **** 0
125 HOH 373 GROUP 4 B **** 0
126 HOH 376 GROUP 4 B **** 0
127 HOH 379 GROUP 4 B **** 0
128 HOH 382 GROUP 4 B **** 0
129 HOH 385 GROUP 4 B **** 0
130 HOH 388 GROUP 4 B **** 0
131 HOH 391 GROUP 4 B **** 0
132 HOH 394 GROUP 4 B **** 0
133 HOH 397 GROUP 4 B **** 0
134 HOH 400 GROUP 4 B **** 0
135 HOH 403 GROUP 4 B **** 0
136 HOH 406 GROUP 4 B **** 0
137 HOH 409 GROUP 4 B **** 0
138 HOH 412 GROUP 4 B **** 0
139 HOH 415 GROUP 4 B **** 0
140 HOH 418 GROUP 4 B **** 0
141 HOH 421 GROUP 4 B **** 0
142 HOH 424 GROUP 4 B **** 0
143 HOH 427 GROUP 4 B **** 0
144 HOH 430 GROUP 4 B **** 0
145 HOH 433 GROUP 4 B **** 0
146 HOH 436 GROUP 4 B **** 0
147 HOH 439 GROUP 4 B **** 0
148 HOH 442 GROUP 4 B **** 0
149 HOH 445 GROUP 4 B **** 0
150 HOH 448 GROUP 4 B **** 0
151 HOH 451 GROUP 4 B **** 0
152 HOH 454 GROUP 4 B **** 0
153 HOH 457 GROUP 4 B **** 0
154 HOH 460 GROUP 4 B **** 0
155 HOH 463 GROUP 4 B **** 0
156 HOH 466 GROUP 4 B **** 0
157 HOH 469 GROUP 4 B **** 0
158 HOH 472 GROUP 4 B **** 0
159 HOH 475 GROUP 4 B **** 0
160 HOH 478 GROUP 4 B **** 0
161 HOH 481 GROUP 4 B **** 0
162 HOH 484 GROUP 4 B **** 0
163 HOH 487 GROUP 4 B **** 0
164 HOH 490 GROUP 4 B **** 0
165 HOH 493 GROUP 4 B **** 0
166 HOH 496 GROUP 4 B **** 0
167 HOH 499 GROUP 4 B **** 0
168 HOH 502 GROUP 4 B **** 0
169 HOH 505 GROUP 4 B **** 0
170 HOH 508 GROUP 4 B **** 0
171 HOH 511 GROUP 4 B **** 0
172 HOH 514 GROUP 4 B **** 0
173 HOH 517 GROUP 4 B **** 0
174 HOH 520 GROUP 4 B **** 0
175 HOH 523 GROUP 4 B **** 0
176 HOH 526 GROUP 4 B **** 0

# MOE 2012.10 (io_trps.svl 2012.10)
