@<TRIPOS>MOLECULE
3qrj.B
69 73 1 0 0 
SMALL
USER_CHARGES


@<TRIPOS>ATOM
  1 C1       3.2200    23.9165    30.3766 C.ar  1 Q919  -0.0230 
  2 C2       3.7956    24.7677    29.4261 C.ar  1 Q919  -0.1500 
  3 H2       3.2397    25.6363    29.1052 H     1 Q919   0.1500 
  4 C3       5.0507    24.5418    28.8788 C.ar  1 Q919  -0.1500 
  5 H3       5.4485    25.2281    28.1459 H     1 Q919   0.1500 
  6 C4       5.7900    23.4499    29.2644 C.ar  1 Q919   0.3100 
  7 C5       5.2519    22.5608    30.1907 C.ar  1 Q919   0.0000 
  8 C6       3.9876    22.8017    30.7203 C.ar  1 Q919  -0.1500 
  9 H6       3.5819    22.0947    31.4289 H     1 Q919   0.1500 
 10 C9       7.7130    22.1527    29.0996 C.ar  1 Q919   0.1600 
 11 H9       8.6846    21.9839    28.6592 H     1 Q919   0.1500 
 12 N10      7.0037    23.2341    28.7233 N.ar  1 Q919  -0.6200 
 13 C13      5.9664    21.4442    30.5959 C.ar  1 Q919  -0.1500 
 14 H13      5.5561    20.7533    31.3175 H     1 Q919   0.1500 
 15 C14      7.2274    21.2402    30.0456 C.ar  1 Q919  -0.1500 
 16 H14      7.8238    20.3904    30.3433 H     1 Q919   0.1500 
 17 C22      0.1343    22.0668    42.6123 C.ar  1 Q919   0.1600 
 18 H22     -0.5490    22.8842    42.7897 H     1 Q919   0.1500 
 19 N23      0.0427    20.9442    43.3622 N.ar  1 Q919  -0.6200 
 20 C24      0.8771    19.9042    43.1174 C.ar  1 Q919   0.3962 
 21 C25      1.8659    19.9797    42.1410 C.ar  1 Q919  -0.1500 
 22 H25      2.5437    19.1526    41.9901 H     1 Q919   0.1500 
 23 C26      1.9762    21.1171    41.3661 C.ar  1 Q919   0.0825 
 24 C27      1.1013    22.1810    41.6121 C.ar  1 Q919  -0.1500 
 25 H27      1.1741    23.0878    41.0299 H     1 Q919   0.1500 
 26 C34      1.7094    22.3424    37.1391 C.ar  1 Q919  -0.1500 
 27 H34      0.7923    22.4016    36.5718 H     1 Q919   0.1500 
 28 C35      1.6953    21.7760    38.4072 C.ar  1 Q919  -0.1500 
 29 H35      0.7758    21.3842    38.8163 H     1 Q919   0.1500 
 30 C36      2.8864    21.7152    39.1571 C.ar  1 Q919   0.0825 
 31 C37      4.0625    22.2016    38.6058 C.ar  1 Q919  -0.1500 
 32 H37      4.9832    22.1367    39.1666 H     1 Q919   0.1500 
 33 C38      4.0668    22.7710    37.3397 C.ar  1 Q919   0.1900 
 34 C39      2.9047    22.8410    36.5823 C.ar  1 Q919   0.1170 
 35 C46     -0.1180    24.4348    30.6872 C.2   1 Q919   0.1078 
 36 C47      0.1461    24.2761    32.0525 C.2   1 Q919  -0.1500 
 37 H47     -0.5629    24.3212    32.8659 H     1 Q919   0.1500 
 38 C48      1.5198    24.0474    32.1398 C.2   1 Q919  -0.0876 
 39 N49      1.9868    24.1109    30.8593 N.pl3 1 Q919   0.5926 
 40 N50      0.9722    24.3119    29.9110 N.2   1 Q919  -0.7068 
 41 N56      2.3909    23.8577    33.1820 N.am  1 Q919  -0.4940 
 42 H56      3.3548    24.1141    33.0233 H     1 Q919   0.3700 
 43 C58      2.0852    23.3623    34.3973 C.2   1 Q919   0.6900 
 44 N60      3.0280    23.3952    35.3522 N.am  1 Q919  -0.5470 
 45 H60      3.8941    23.8685    35.1376 H     1 Q919   0.3700 
 46 O63      1.0033    22.8877    34.6451 O.2   1 Q919  -0.5700 
 47 O65      2.9605    21.1462    40.4098 O.3   1 Q919  -0.1650 
 48 F68      5.2123    23.2837    36.8471 F     1 Q919  -0.1900 
 49 C70      0.7874    18.6920    43.9694 C.2   1 Q919   0.5438 
 50 O72      1.5832    17.7503    43.8449 O.2   1 Q919  -0.5700 
 51 N74     -0.0958    18.7327    44.9406 N.am  1 Q919  -0.7301 
 52 H74     -0.7889    19.4673    44.9370 H     1 Q919   0.3700 
 53 C76     -0.1128    17.7651    46.0145 C.3   1 Q919   0.0601 
 54 H761     0.6941    17.0470    45.8693 H     1 Q919   0.0800 
 55 H762    -1.0690    17.2418    46.0169 H     1 Q919   0.0800 
 56 H763     0.0235    18.2772    46.9671 H     1 Q919   0.0800 
 57 C79     -1.4783    24.6378    30.0203 C.3   1 Q919   0.1810 
 58 C81     -1.5468    23.6157    28.8892 C.3   1 Q919  -0.2400 
 59 H811    -1.4246    22.6127    29.2980 H     1 Q919   0.0800 
 60 H812    -0.7514    23.8147    28.1710 H     1 Q919   0.0800 
 61 H813    -2.5133    23.6896    28.3908 H     1 Q919   0.0800 
 62 C83     -2.6506    24.3600    30.9505 C.3   1 Q919  -0.2400 
 63 H831    -2.5370    23.3703    31.3927 H     1 Q919   0.0800 
 64 H832    -3.5812    24.4004    30.3843 H     1 Q919   0.0800 
 65 H833    -2.6732    25.1106    31.7406 H     1 Q919   0.0800 
 66 C85     -1.6535    26.0307    29.4083 C.3   1 Q919  -0.2400 
 67 H851    -0.8190    26.2412    28.7394 H     1 Q919   0.0800 
 68 H852    -1.6791    26.7762    30.2031 H     1 Q919   0.0800 
 69 H853    -2.5870    26.0661    28.8467 H     1 Q919   0.0800 
@<TRIPOS>BOND
  1   1   2  ar  
  2   1   8  ar  
  3   1  39  1   
  4   2   3  1   
  5   2   4  ar  
  6   4   5  1   
  7   4   6  ar  
  8   6   7  ar  
  9   6  12  ar  
 10   7   8  ar  
 11   7  13  ar  
 12   8   9  1   
 13  10  11  1   
 14  10  12  ar  
 15  10  15  ar  
 16  13  14  1   
 17  13  15  ar  
 18  15  16  1   
 19  17  18  1   
 20  17  19  ar  
 21  17  24  ar  
 22  19  20  ar  
 23  20  21  ar  
 24  20  49  1   
 25  21  22  1   
 26  21  23  ar  
 27  23  24  ar  
 28  23  47  1   
 29  24  25  1   
 30  26  27  1   
 31  26  28  ar  
 32  26  34  ar  
 33  28  29  1   
 34  28  30  ar  
 35  30  31  ar  
 36  30  47  1   
 37  31  32  1   
 38  31  33  ar  
 39  33  34  ar  
 40  33  48  1   
 41  34  44  1   
 42  35  36  1   
 43  35  40  2   
 44  35  57  1   
 45  36  37  1   
 46  36  38  2   
 47  38  39  1   
 48  38  41  1   
 49  39  40  1   
 50  41  42  1   
 51  41  43  am  
 52  43  44  am  
 53  43  46  2   
 54  44  45  1   
 55  49  50  2   
 56  49  51  am  
 57  51  52  1   
 58  51  53  1   
 59  53  54  1   
 60  53  55  1   
 61  53  56  1   
 62  57  58  1   
 63  57  62  1   
 64  57  66  1   
 65  58  59  1   
 66  58  60  1   
 67  58  61  1   
 68  62  63  1   
 69  62  64  1   
 70  62  65  1   
 71  66  67  1   
 72  66  68  1   
 73  66  69  1   
@<TRIPOS>SUBSTRUCTURE
  1 Q919  44 GROUP 4 B **** 0

# MOE 2012.10 (io_trps.svl 2012.10)
