@<TRIPOS>MOLECULE
3qrj.B
348 232 116 0 0 
SMALL
USER_CHARGES


@<TRIPOS>ATOM
  1 O        7.2722    13.3032    41.3883 O.3     1 HOH   0.0000 
  2 H1       8.2322    13.3032    41.3883 H       1 HOH   0.0000 
  3 H2       6.9819    13.9503    42.0353 H       1 HOH   0.0000 
  4 O       -8.8845     6.9233    22.5681 O.3     2 HOH   0.0000 
  5 H1      -7.9245     6.9233    22.5681 H       2 HOH   0.0000 
  6 H2      -9.1748     7.5703    23.2151 H       2 HOH   0.0000 
  7 O      -13.8761     5.1745    22.7727 O.3     3 HOH   0.0000 
  8 H1     -12.9161     5.1745    22.7727 H       3 HOH   0.0000 
  9 H2     -14.1664     5.8216    23.4198 H       3 HOH   0.0000 
 10 O       -6.8233     6.2870    21.0745 O.3     4 HOH   0.0000 
 11 H1      -5.8633     6.2870    21.0745 H       4 HOH   0.0000 
 12 H2      -7.1136     6.9340    21.7216 H       4 HOH   0.0000 
 13 O       -8.0616     5.3556    49.6208 O.3     5 HOH   0.0000 
 14 H1      -7.1016     5.3556    49.6208 H       5 HOH   0.0000 
 15 H2      -8.3519     6.0026    50.2679 H       5 HOH   0.0000 
 16 O      -16.6220     4.4670    48.8664 O.3     6 HOH   0.0000 
 17 H1     -15.6620     4.4670    48.8664 H       6 HOH   0.0000 
 18 H2     -16.9123     5.1140    49.5135 H       6 HOH   0.0000 
 19 O       -5.2300     9.7589    33.6346 O.3     7 HOH   0.0000 
 20 H1      -4.2700     9.7589    33.6346 H       7 HOH   0.0000 
 21 H2      -5.5203    10.4060    34.2816 H       7 HOH   0.0000 
 22 O        9.5908    23.1190    32.0925 O.3     8 HOH  -0.8340 
 23 H1      10.0286    23.8273    31.6204 H       8 HOH   0.4170 
 24 H2       8.7622    23.5003    32.3828 H       8 HOH   0.4170 
 25 O       -2.0898     4.4817    26.9973 O.3     9 HOH   0.0000 
 26 H1      -1.1298     4.4817    26.9973 H       9 HOH   0.0000 
 27 H2      -2.3801     5.1287    27.6443 H       9 HOH   0.0000 
 28 O        0.9283    18.6210    26.6817 O.3    10 HOH  -0.8340 
 29 H1       0.9506    18.9795    27.5689 H      10 HOH   0.4170 
 30 H2       0.2776    19.1534    26.2241 H      10 HOH   0.4170 
 31 O      -18.2170     8.0703    19.1166 O.3    11 HOH   0.0000 
 32 H1     -17.2570     8.0703    19.1166 H      11 HOH   0.0000 
 33 H2     -18.5072     8.7174    19.7636 H      11 HOH   0.0000 
 34 O       -4.5094    17.0020    21.6109 O.3    12 HOH   0.0000 
 35 H1      -3.5494    17.0020    21.6109 H      12 HOH   0.0000 
 36 H2      -4.7997    17.6491    22.2580 H      12 HOH   0.0000 
 37 O      -13.2499    -1.0222    26.0150 O.3    13 HOH   0.0000 
 38 H1     -12.2899    -1.0222    26.0150 H      13 HOH   0.0000 
 39 H2     -13.5402    -0.3751    26.6621 H      13 HOH   0.0000 
 40 O       -3.5601    12.4704    27.0240 O.3    14 HOH   0.0000 
 41 H1      -2.6001    12.4704    27.0240 H      14 HOH   0.0000 
 42 H2      -3.8504    13.1174    27.6711 H      14 HOH   0.0000 
 43 O       -6.5861    23.7988    16.8672 O.3    15 HOH   0.0000 
 44 H1      -5.6261    23.7988    16.8672 H      15 HOH   0.0000 
 45 H2      -6.8763    24.4458    17.5143 H      15 HOH   0.0000 
 46 O        2.5758    38.7489    33.5401 O.3    16 HOH   0.0000 
 47 H1       3.5358    38.7489    33.5401 H      16 HOH   0.0000 
 48 H2       2.2855    39.3960    34.1872 H      16 HOH   0.0000 
 49 O       -7.0011     9.2538    11.1285 O.3    17 HOH   0.0000 
 50 H1      -6.0411     9.2538    11.1285 H      17 HOH   0.0000 
 51 H2      -7.2914     9.9009    11.7755 H      17 HOH   0.0000 
 52 O       -8.8521    10.1242    46.9895 O.3    18 HOH   0.0000 
 53 H1      -7.8921    10.1242    46.9895 H      18 HOH   0.0000 
 54 H2      -9.1424    10.7712    47.6365 H      18 HOH   0.0000 
 55 O        4.6021     5.7839    30.6054 O.3    19 HOH   0.0000 
 56 H1       5.5621     5.7839    30.6054 H      19 HOH   0.0000 
 57 H2       4.3118     6.4309    31.2525 H      19 HOH   0.0000 
 58 O       -8.4504    29.0224    43.1579 O.3    20 HOH   0.0000 
 59 H1      -7.4904    29.0224    43.1579 H      20 HOH   0.0000 
 60 H2      -8.7407    29.6695    43.8050 H      20 HOH   0.0000 
 61 O       -7.1466     6.1121    33.9090 O.3    21 HOH   0.0000 
 62 H1      -6.1866     6.1121    33.9090 H      21 HOH   0.0000 
 63 H2      -7.4369     6.7591    34.5560 H      21 HOH   0.0000 
 64 O        1.8557    15.8467    30.2957 O.3    22 HOH   0.0000 
 65 H1       2.8157    15.8467    30.2957 H      22 HOH   0.0000 
 66 H2       1.5654    16.4937    30.9427 H      22 HOH   0.0000 
 67 O       -8.9691    33.4964    37.2540 O.3    23 HOH   0.0000 
 68 H1      -8.0091    33.4964    37.2540 H      23 HOH   0.0000 
 69 H2      -9.2594    34.1434    37.9011 H      23 HOH   0.0000 
 70 O        2.0716    36.1303    29.9160 O.3    24 HOH   0.0000 
 71 H1       3.0316    36.1303    29.9160 H      24 HOH   0.0000 
 72 H2       1.7813    36.7773    30.5631 H      24 HOH   0.0000 
 73 O        6.3753    17.1365    25.1157 O.3    25 HOH   0.0000 
 74 H1       7.3353    17.1365    25.1157 H      25 HOH   0.0000 
 75 H2       6.0850    17.7836    25.7628 H      25 HOH   0.0000 
 76 O       -2.3980    25.7168    41.0231 O.3    26 HOH  -0.8340 
 77 H1      -1.9842    25.3252    41.7923 H      26 HOH   0.4170 
 78 H2      -3.0461    26.3231    41.3818 H      26 HOH   0.4170 
 79 O       -4.5922    12.4091    44.4438 O.3    27 HOH   0.0000 
 80 H1      -3.6322    12.4091    44.4438 H      27 HOH   0.0000 
 81 H2      -4.8825    13.0561    45.0908 H      27 HOH   0.0000 
 82 O      -26.1446     2.1435    34.5818 O.3    28 HOH   0.0000 
 83 H1     -25.1846     2.1435    34.5818 H      28 HOH   0.0000 
 84 H2     -26.4348     2.7906    35.2288 H      28 HOH   0.0000 
 85 O       -1.3810    33.8569    35.5832 O.3    29 HOH   0.0000 
 86 H1      -0.4210    33.8569    35.5832 H      29 HOH   0.0000 
 87 H2      -1.6713    34.5040    36.2303 H      29 HOH   0.0000 
 88 O      -11.4958    17.9697    47.4832 O.3    30 HOH   0.0000 
 89 H1     -10.5358    17.9697    47.4832 H      30 HOH   0.0000 
 90 H2     -11.7861    18.6167    48.1303 H      30 HOH   0.0000 
 91 O      -13.1842    11.1888    49.6399 O.3    31 HOH   0.0000 
 92 H1     -12.2242    11.1888    49.6399 H      31 HOH   0.0000 
 93 H2     -13.4745    11.8358    50.2869 H      31 HOH   0.0000 
 94 O      -28.0138    25.5538    33.2390 O.3    32 HOH   0.0000 
 95 H1     -27.0538    25.5538    33.2390 H      32 HOH   0.0000 
 96 H2     -28.3041    26.2008    33.8860 H      32 HOH   0.0000 
 97 O      -13.8918    31.0864    29.0120 O.3    33 HOH   0.0000 
 98 H1     -12.9318    31.0864    29.0120 H      33 HOH   0.0000 
 99 H2     -14.1821    31.7334    29.6591 H      33 HOH   0.0000 
100 O      -11.8268    25.2190    46.7342 O.3    34 HOH   0.0000 
101 H1     -10.8668    25.2190    46.7342 H      34 HOH   0.0000 
102 H2     -12.1170    25.8660    47.3812 H      34 HOH   0.0000 
103 O      -16.4296    19.8288    50.2072 O.3    35 HOH   0.0000 
104 H1     -15.4696    19.8288    50.2072 H      35 HOH   0.0000 
105 H2     -16.7198    20.4758    50.8542 H      35 HOH   0.0000 
106 O      -25.5060    15.2064    26.1075 O.3    36 HOH   0.0000 
107 H1     -24.5460    15.2064    26.1075 H      36 HOH   0.0000 
108 H2     -25.7963    15.8535    26.7546 H      36 HOH   0.0000 
109 O       -3.1513     7.6624    33.4661 O.3    37 HOH   0.0000 
110 H1      -2.1913     7.6624    33.4661 H      37 HOH   0.0000 
111 H2      -3.4416     8.3094    34.1132 H      37 HOH   0.0000 
112 O      -18.5388     0.1997    19.5712 O.3    38 HOH   0.0000 
113 H1     -17.5788     0.1997    19.5712 H      38 HOH   0.0000 
114 H2     -18.8291     0.8467    20.2182 H      38 HOH   0.0000 
115 O        8.1094     9.7889    19.7988 O.3    39 HOH   0.0000 
116 H1       9.0694     9.7889    19.7988 H      39 HOH   0.0000 
117 H2       7.8191    10.4359    20.4459 H      39 HOH   0.0000 
118 O      -17.0480     8.8924    13.8050 O.3    40 HOH   0.0000 
119 H1     -16.0880     8.8924    13.8050 H      40 HOH   0.0000 
120 H2     -17.3383     9.5394    14.4521 H      40 HOH   0.0000 
121 O      -22.3883     1.0009    25.6379 O.3    41 HOH   0.0000 
122 H1     -21.4283     1.0009    25.6379 H      41 HOH   0.0000 
123 H2     -22.6785     1.6480    26.2850 H      41 HOH   0.0000 
124 O       -5.1751    16.1926    24.7847 O.3    42 HOH   0.0000 
125 H1      -4.2151    16.1926    24.7847 H      42 HOH   0.0000 
126 H2      -5.4654    16.8396    25.4317 H      42 HOH   0.0000 
127 O      -16.1838    30.2757    24.2068 O.3    43 HOH   0.0000 
128 H1     -15.2238    30.2757    24.2068 H      43 HOH   0.0000 
129 H2     -16.4740    30.9227    24.8538 H      43 HOH   0.0000 
130 O        1.8569    13.1291    25.8318 O.3    44 HOH   0.0000 
131 H1       2.8169    13.1291    25.8318 H      44 HOH   0.0000 
132 H2       1.5666    13.7762    26.4788 H      44 HOH   0.0000 
133 O      -10.1216    28.6387    41.5581 O.3    45 HOH   0.0000 
134 H1      -9.1616    28.6387    41.5581 H      45 HOH   0.0000 
135 H2     -10.4119    29.2858    42.2051 H      45 HOH   0.0000 
136 O      -16.7998    11.8120    11.8687 O.3    46 HOH   0.0000 
137 H1     -15.8398    11.8120    11.8687 H      46 HOH   0.0000 
138 H2     -17.0901    12.4591    12.5157 H      46 HOH   0.0000 
139 O      -18.8725     3.1378    36.7184 O.3    47 HOH   0.0000 
140 H1     -17.9125     3.1378    36.7184 H      47 HOH   0.0000 
141 H2     -19.1628     3.7848    37.3654 H      47 HOH   0.0000 
142 O        2.7836     0.4106    16.3447 O.3    48 HOH   0.0000 
143 H1       3.7436     0.4106    16.3447 H      48 HOH   0.0000 
144 H2       2.4934     1.0577    16.9917 H      48 HOH   0.0000 
145 O      -14.1295    28.5085    23.7866 O.3    49 HOH   0.0000 
146 H1     -13.1695    28.5085    23.7866 H      49 HOH   0.0000 
147 H2     -14.4197    29.1555    24.4337 H      49 HOH   0.0000 
148 O       -5.2799    30.3641    36.4857 O.3    50 HOH   0.0000 
149 H1      -4.3199    30.3641    36.4857 H      50 HOH   0.0000 
150 H2      -5.5702    31.0112    37.1328 H      50 HOH   0.0000 
151 O       -9.4745    11.0055    12.5142 O.3    51 HOH   0.0000 
152 H1      -8.5145    11.0055    12.5142 H      51 HOH   0.0000 
153 H2      -9.7648    11.6526    13.1612 H      51 HOH   0.0000 
154 O      -14.3732    28.8842    30.1744 O.3    52 HOH   0.0000 
155 H1     -13.4132    28.8842    30.1744 H      52 HOH   0.0000 
156 H2     -14.6634    29.5312    30.8215 H      52 HOH   0.0000 
157 O       -1.1631     9.6438    38.1987 O.3    53 HOH   0.0000 
158 H1      -0.2031     9.6438    38.1987 H      53 HOH   0.0000 
159 H2      -1.4534    10.2908    38.8458 H      53 HOH   0.0000 
160 O      -11.4404     3.0491    40.8254 O.3    54 HOH   0.0000 
161 H1     -10.4804     3.0491    40.8254 H      54 HOH   0.0000 
162 H2     -11.7307     3.6961    41.4724 H      54 HOH   0.0000 
163 O        4.7379     7.8640    12.6999 O.3    55 HOH   0.0000 
164 H1       5.6979     7.8640    12.6999 H      55 HOH   0.0000 
165 H2       4.4476     8.5110    13.3469 H      55 HOH   0.0000 
166 O        3.9271    11.3037    24.4958 O.3    56 HOH   0.0000 
167 H1       4.8871    11.3037    24.4958 H      56 HOH   0.0000 
168 H2       3.6368    11.9508    25.1429 H      56 HOH   0.0000 
169 O       -3.4185     0.6271    16.1854 O.3    57 HOH   0.0000 
170 H1      -2.4585     0.6271    16.1854 H      57 HOH   0.0000 
171 H2      -3.7088     1.2741    16.8324 H      57 HOH   0.0000 
172 O      -26.8578    14.9152    23.9853 O.3    58 HOH   0.0000 
173 H1     -25.8978    14.9152    23.9853 H      58 HOH   0.0000 
174 H2     -27.1480    15.5622    24.6323 H      58 HOH   0.0000 
175 O       -7.9660    24.1493    47.2556 O.3    59 HOH   0.0000 
176 H1      -7.0060    24.1493    47.2556 H      59 HOH   0.0000 
177 H2      -8.2563    24.7963    47.9026 H      59 HOH   0.0000 
178 O       -4.6432    30.8909    42.4611 O.3    60 HOH   0.0000 
179 H1      -3.6832    30.8909    42.4611 H      60 HOH   0.0000 
180 H2      -4.9335    31.5379    43.1081 H      60 HOH   0.0000 
181 O      -15.6130     5.8462    13.5584 O.3    61 HOH   0.0000 
182 H1     -14.6530     5.8462    13.5584 H      61 HOH   0.0000 
183 H2     -15.9033     6.4933    14.2055 H      61 HOH   0.0000 
184 O        4.6870    12.9150    20.5305 O.3    62 HOH   0.0000 
185 H1       5.6470    12.9150    20.5305 H      62 HOH   0.0000 
186 H2       4.3967    13.5621    21.1776 H      62 HOH   0.0000 
187 O        3.7067     5.8738    37.0429 O.3    63 HOH   0.0000 
188 H1       4.6667     5.8738    37.0429 H      63 HOH   0.0000 
189 H2       3.4164     6.5209    37.6899 H      63 HOH   0.0000 
190 O      -18.7903    19.9414    49.4193 O.3    64 HOH   0.0000 
191 H1     -17.8303    19.9414    49.4193 H      64 HOH   0.0000 
192 H2     -19.0806    20.5885    50.0664 H      64 HOH   0.0000 
193 O       -1.0837    30.6817    35.8642 O.3    65 HOH   0.0000 
194 H1      -0.1237    30.6817    35.8642 H      65 HOH   0.0000 
195 H2      -1.3739    31.3287    36.5112 H      65 HOH   0.0000 
196 O       -4.7457     5.3885    33.6554 O.3    66 HOH   0.0000 
197 H1      -3.7857     5.3885    33.6554 H      66 HOH   0.0000 
198 H2      -5.0360     6.0356    34.3024 H      66 HOH   0.0000 
199 O       10.1144    44.7448    36.3923 O.3    67 HOH   0.0000 
200 H1      11.0744    44.7448    36.3923 H      67 HOH   0.0000 
201 H2       9.8241    45.3919    37.0394 H      67 HOH   0.0000 
202 O       -6.2965    28.9615    46.7543 O.3    68 HOH   0.0000 
203 H1      -5.3365    28.9615    46.7543 H      68 HOH   0.0000 
204 H2      -6.5868    29.6086    47.4013 H      68 HOH   0.0000 
205 O        1.3792    24.0271    27.2558 O.3    69 HOH  -0.8340 
206 H1       1.1729    24.2567    28.1619 H      69 HOH   0.4170 
207 H2       1.6877    23.1221    27.3018 H      69 HOH   0.4170 
208 O       -9.9605    31.5289    41.0103 O.3    70 HOH   0.0000 
209 H1      -9.0005    31.5289    41.0103 H      70 HOH   0.0000 
210 H2     -10.2507    32.1760    41.6574 H      70 HOH   0.0000 
211 O      -16.9009     1.1099    29.0990 O.3    71 HOH   0.0000 
212 H1     -15.9409     1.1099    29.0990 H      71 HOH   0.0000 
213 H2     -17.1911     1.7569    29.7460 H      71 HOH   0.0000 
214 O       10.6428     6.6303    25.2926 O.3    72 HOH   0.0000 
215 H1      11.6028     6.6303    25.2926 H      72 HOH   0.0000 
216 H2      10.3526     7.2773    25.9396 H      72 HOH   0.0000 
217 O      -11.8588    19.5012    51.3132 O.3    73 HOH   0.0000 
218 H1     -10.8988    19.5012    51.3132 H      73 HOH   0.0000 
219 H2     -12.1491    20.1482    51.9602 H      73 HOH   0.0000 
220 O        4.4378    15.3571    18.6107 O.3    74 HOH   0.0000 
221 H1       5.3978    15.3571    18.6107 H      74 HOH   0.0000 
222 H2       4.1476    16.0042    19.2578 H      74 HOH   0.0000 
223 O        2.2679    17.6243    12.6183 O.3    75 HOH   0.0000 
224 H1       3.2279    17.6243    12.6183 H      75 HOH   0.0000 
225 H2       1.9777    18.2714    13.2653 H      75 HOH   0.0000 
226 O        4.3397     0.2651    22.0555 O.3    76 HOH   0.0000 
227 H1       5.2997     0.2651    22.0555 H      76 HOH   0.0000 
228 H2       4.0494     0.9121    22.7026 H      76 HOH   0.0000 
229 O      -12.5070     5.3089    45.1307 O.3    77 HOH   0.0000 
230 H1     -11.5470     5.3089    45.1307 H      77 HOH   0.0000 
231 H2     -12.7973     5.9559    45.7778 H      77 HOH   0.0000 
232 O      -16.6846    25.9882    38.5346 O.3    78 HOH   0.0000 
233 H1     -15.7246    25.9882    38.5346 H      78 HOH   0.0000 
234 H2     -16.9748    26.6352    39.1817 H      78 HOH   0.0000 
235 O      -13.0360    23.6537    18.5057 O.3    79 HOH   0.0000 
236 H1     -12.0760    23.6537    18.5057 H      79 HOH   0.0000 
237 H2     -13.3263    24.3008    19.1527 H      79 HOH   0.0000 
238 O      -18.6590    24.2590    37.1014 O.3    80 HOH   0.0000 
239 H1     -17.6990    24.2590    37.1014 H      80 HOH   0.0000 
240 H2     -18.9492    24.9061    37.7485 H      80 HOH   0.0000 
241 O      -25.8129     3.4546    26.1747 O.3    81 HOH   0.0000 
242 H1     -24.8529     3.4546    26.1747 H      81 HOH   0.0000 
243 H2     -26.1032     4.1016    26.8218 H      81 HOH   0.0000 
244 O      -21.9877     9.0459    37.6272 O.3    82 HOH   0.0000 
245 H1     -21.0277     9.0459    37.6272 H      82 HOH   0.0000 
246 H2     -22.2780     9.6929    38.2743 H      82 HOH   0.0000 
247 O        1.5220     8.9529     8.7583 O.3    83 HOH   0.0000 
248 H1       2.4820     8.9529     8.7583 H      83 HOH   0.0000 
249 H2       1.2317     9.6000     9.4054 H      83 HOH   0.0000 
250 O      -15.8209    22.3466    27.2584 O.3    84 HOH   0.0000 
251 H1     -14.8609    22.3466    27.2584 H      84 HOH   0.0000 
252 H2     -16.1111    22.9936    27.9055 H      84 HOH   0.0000 
253 O      -23.1715    30.8460    24.7707 O.3    85 HOH   0.0000 
254 H1     -22.2115    30.8460    24.7707 H      85 HOH   0.0000 
255 H2     -23.4617    31.4930    25.4177 H      85 HOH   0.0000 
256 O      -23.4583    11.7536    20.6039 O.3    86 HOH   0.0000 
257 H1     -22.4983    11.7536    20.6039 H      86 HOH   0.0000 
258 H2     -23.7486    12.4007    21.2509 H      86 HOH   0.0000 
259 O       -5.8143     5.9439    50.1389 O.3    87 HOH   0.0000 
260 H1      -4.8543     5.9439    50.1389 H      87 HOH   0.0000 
261 H2      -6.1046     6.5909    50.7860 H      87 HOH   0.0000 
262 O        4.4508    -0.9772    17.6787 O.3    88 HOH   0.0000 
263 H1       5.4108    -0.9772    17.6787 H      88 HOH   0.0000 
264 H2       4.1605    -0.3302    18.3258 H      88 HOH   0.0000 
265 O      -18.2962    13.0953    54.1128 O.3    89 HOH   0.0000 
266 H1     -17.3362    13.0953    54.1128 H      89 HOH   0.0000 
267 H2     -18.5864    13.7424    54.7599 H      89 HOH   0.0000 
268 O       11.6760    13.6051    38.4825 O.3    90 HOH   0.0000 
269 H1      12.6360    13.6051    38.4825 H      90 HOH   0.0000 
270 H2      11.3857    14.2521    39.1296 H      90 HOH   0.0000 
271 O       11.8011    38.7998    49.4865 O.3    91 HOH   0.0000 
272 H1      12.7611    38.7998    49.4865 H      91 HOH   0.0000 
273 H2      11.5109    39.4468    50.1335 H      91 HOH   0.0000 
274 O       -3.1646     4.2676    41.1467 O.3    92 HOH   0.0000 
275 H1      -2.2046     4.2676    41.1467 H      92 HOH   0.0000 
276 H2      -3.4549     4.9146    41.7938 H      92 HOH   0.0000 
277 O        8.5698    17.1234    31.4255 O.3    93 HOH  -0.8340 
278 H1       8.5972    16.9914    30.4778 H      93 HOH   0.4170 
279 H2       7.9819    16.4395    31.7462 H      93 HOH   0.4170 
280 O       -0.7747    27.7254    47.3230 O.3    94 HOH   0.0000 
281 H1       0.1853    27.7254    47.3230 H      94 HOH   0.0000 
282 H2      -1.0649    28.3724    47.9701 H      94 HOH   0.0000 
283 O       -2.2621     2.7184    29.2480 O.3    95 HOH   0.0000 
284 H1      -1.3021     2.7184    29.2480 H      95 HOH   0.0000 
285 H2      -2.5524     3.3654    29.8951 H      95 HOH   0.0000 
286 O        8.2877    10.9041    46.3632 O.3    96 HOH   0.0000 
287 H1       9.2477    10.9041    46.3632 H      96 HOH   0.0000 
288 H2       7.9974    11.5512    47.0102 H      96 HOH   0.0000 
289 O        3.8540    -1.3735    35.8163 O.3    97 HOH   0.0000 
290 H1       4.8140    -1.3735    35.8163 H      97 HOH   0.0000 
291 H2       3.5637    -0.7265    36.4633 H      97 HOH   0.0000 
292 O       -1.0736     6.5837    34.6088 O.3    98 HOH   0.0000 
293 H1      -0.1136     6.5837    34.6088 H      98 HOH   0.0000 
294 H2      -1.3639     7.2307    35.2559 H      98 HOH   0.0000 
295 O       -4.4598    -6.6321    18.6507 O.3    99 HOH   0.0000 
296 H1      -3.4998    -6.6321    18.6507 H      99 HOH   0.0000 
297 H2      -4.7501    -5.9851    19.2978 H      99 HOH   0.0000 
298 O      -19.8625     2.2450    17.7628 O.3   100 HOH   0.0000 
299 H1     -18.9025     2.2450    17.7628 H     100 HOH   0.0000 
300 H2     -20.1528     2.8921    18.4099 H     100 HOH   0.0000 
301 O       -6.1664    35.5020    29.8924 O.3   101 HOH   0.0000 
302 H1      -5.2064    35.5020    29.8924 H     101 HOH   0.0000 
303 H2      -6.4566    36.1490    30.5395 H     101 HOH   0.0000 
304 O       -2.7454    26.4927    48.1976 O.3   102 HOH   0.0000 
305 H1      -1.7854    26.4927    48.1976 H     102 HOH   0.0000 
306 H2      -3.0357    27.1398    48.8447 H     102 HOH   0.0000 
307 O      -18.6320     6.7247    16.5719 O.3   103 HOH   0.0000 
308 H1     -17.6720     6.7247    16.5719 H     103 HOH   0.0000 
309 H2     -18.9223     7.3718    17.2189 H     103 HOH   0.0000 
310 O      -20.6831    -1.6309    30.1985 O.3   104 HOH   0.0000 
311 H1     -19.7231    -1.6309    30.1985 H     104 HOH   0.0000 
312 H2     -20.9734    -0.9838    30.8456 H     104 HOH   0.0000 
313 O       15.8659    20.1468    40.2811 O.3   105 HOH   0.0000 
314 H1      16.8259    20.1468    40.2811 H     105 HOH   0.0000 
315 H2      15.5757    20.7938    40.9281 H     105 HOH   0.0000 
316 O      -21.9824    17.2367    16.3729 O.3   106 HOH   0.0000 
317 H1     -21.0224    17.2367    16.3729 H     106 HOH   0.0000 
318 H2     -22.2727    17.8837    17.0200 H     106 HOH   0.0000 
319 O       -4.3592    -4.9201    15.5369 O.3   107 HOH   0.0000 
320 H1      -3.3992    -4.9201    15.5369 H     107 HOH   0.0000 
321 H2      -4.6495    -4.2731    16.1840 H     107 HOH   0.0000 
322 O       -0.4320    34.6694    41.0522 O.3   108 HOH   0.0000 
323 H1       0.5280    34.6694    41.0522 H     108 HOH   0.0000 
324 H2      -0.7223    35.3165    41.6992 H     108 HOH   0.0000 
325 O       -1.7361     6.2050    39.2175 O.3   109 HOH   0.0000 
326 H1      -0.7761     6.2050    39.2175 H     109 HOH   0.0000 
327 H2      -2.0264     6.8520    39.8645 H     109 HOH   0.0000 
328 O       -0.6942     7.1963    37.3974 O.3   110 HOH   0.0000 
329 H1       0.2658     7.1963    37.3974 H     110 HOH   0.0000 
330 H2      -0.9845     7.8433    38.0444 H     110 HOH   0.0000 
331 O       -4.3158    14.7694    22.8487 O.3   111 HOH   0.0000 
332 H1      -3.3558    14.7694    22.8487 H     111 HOH   0.0000 
333 H2      -4.6061    15.4165    23.4958 H     111 HOH   0.0000 
334 O       14.4658    38.6490    36.4407 O.3   112 HOH   0.0000 
335 H1      15.4258    38.6490    36.4407 H     112 HOH   0.0000 
336 H2      14.1755    39.2960    37.0877 H     112 HOH   0.0000 
337 O       13.1631    19.7784    52.1575 O.3   113 HOH   0.0000 
338 H1      14.1231    19.7784    52.1575 H     113 HOH   0.0000 
339 H2      12.8728    20.4254    52.8046 H     113 HOH   0.0000 
340 O        9.9824    19.4442    32.4322 O.3   114 HOH  -0.8340 
341 H1       9.6899    18.5338    32.3888 H     114 HOH   0.4170 
342 H2      10.2862    19.6411    31.5461 H     114 HOH   0.4170 
343 O       -6.9257    20.6867    52.6857 O.3   115 HOH   0.0000 
344 H1      -5.9657    20.6867    52.6857 H     115 HOH   0.0000 
345 H2      -7.2160    21.3338    53.3328 H     115 HOH   0.0000 
346 O      -15.4588    28.4129    20.1920 O.3   116 HOH   0.0000 
347 H1     -14.4988    28.4129    20.1920 H     116 HOH   0.0000 
348 H2     -15.7491    29.0599    20.8391 H     116 HOH   0.0000 
@<TRIPOS>BOND
  1   1   2  1   
  2   1   3  1   
  3   4   5  1   
  4   4   6  1   
  5   7   8  1   
  6   7   9  1   
  7  10  11  1   
  8  10  12  1   
  9  13  14  1   
 10  13  15  1   
 11  16  17  1   
 12  16  18  1   
 13  19  20  1   
 14  19  21  1   
 15  22  23  1   
 16  22  24  1   
 17  25  26  1   
 18  25  27  1   
 19  28  29  1   
 20  28  30  1   
 21  31  32  1   
 22  31  33  1   
 23  34  35  1   
 24  34  36  1   
 25  37  38  1   
 26  37  39  1   
 27  40  41  1   
 28  40  42  1   
 29  43  44  1   
 30  43  45  1   
 31  46  47  1   
 32  46  48  1   
 33  49  50  1   
 34  49  51  1   
 35  52  53  1   
 36  52  54  1   
 37  55  56  1   
 38  55  57  1   
 39  58  59  1   
 40  58  60  1   
 41  61  62  1   
 42  61  63  1   
 43  64  65  1   
 44  64  66  1   
 45  67  68  1   
 46  67  69  1   
 47  70  71  1   
 48  70  72  1   
 49  73  74  1   
 50  73  75  1   
 51  76  77  1   
 52  76  78  1   
 53  79  80  1   
 54  79  81  1   
 55  82  83  1   
 56  82  84  1   
 57  85  86  1   
 58  85  87  1   
 59  88  89  1   
 60  88  90  1   
 61  91  92  1   
 62  91  93  1   
 63  94  95  1   
 64  94  96  1   
 65  97  98  1   
 66  97  99  1   
 67 100 101  1   
 68 100 102  1   
 69 103 104  1   
 70 103 105  1   
 71 106 107  1   
 72 106 108  1   
 73 109 110  1   
 74 109 111  1   
 75 112 113  1   
 76 112 114  1   
 77 115 116  1   
 78 115 117  1   
 79 118 119  1   
 80 118 120  1   
 81 121 122  1   
 82 121 123  1   
 83 124 125  1   
 84 124 126  1   
 85 127 128  1   
 86 127 129  1   
 87 130 131  1   
 88 130 132  1   
 89 133 134  1   
 90 133 135  1   
 91 136 137  1   
 92 136 138  1   
 93 139 140  1   
 94 139 141  1   
 95 142 143  1   
 96 142 144  1   
 97 145 146  1   
 98 145 147  1   
 99 148 149  1   
100 148 150  1   
101 151 152  1   
102 151 153  1   
103 154 155  1   
104 154 156  1   
105 157 158  1   
106 157 159  1   
107 160 161  1   
108 160 162  1   
109 163 164  1   
110 163 165  1   
111 166 167  1   
112 166 168  1   
113 169 170  1   
114 169 171  1   
115 172 173  1   
116 172 174  1   
117 175 176  1   
118 175 177  1   
119 178 179  1   
120 178 180  1   
121 181 182  1   
122 181 183  1   
123 184 185  1   
124 184 186  1   
125 187 188  1   
126 187 189  1   
127 190 191  1   
128 190 192  1   
129 193 194  1   
130 193 195  1   
131 196 197  1   
132 196 198  1   
133 199 200  1   
134 199 201  1   
135 202 203  1   
136 202 204  1   
137 205 206  1   
138 205 207  1   
139 208 209  1   
140 208 210  1   
141 211 212  1   
142 211 213  1   
143 214 215  1   
144 214 216  1   
145 217 218  1   
146 217 219  1   
147 220 221  1   
148 220 222  1   
149 223 224  1   
150 223 225  1   
151 226 227  1   
152 226 228  1   
153 229 230  1   
154 229 231  1   
155 232 233  1   
156 232 234  1   
157 235 236  1   
158 235 237  1   
159 238 239  1   
160 238 240  1   
161 241 242  1   
162 241 243  1   
163 244 245  1   
164 244 246  1   
165 247 248  1   
166 247 249  1   
167 250 251  1   
168 250 252  1   
169 253 254  1   
170 253 255  1   
171 256 257  1   
172 256 258  1   
173 259 260  1   
174 259 261  1   
175 262 263  1   
176 262 264  1   
177 265 266  1   
178 265 267  1   
179 268 269  1   
180 268 270  1   
181 271 272  1   
182 271 273  1   
183 274 275  1   
184 274 276  1   
185 277 278  1   
186 277 279  1   
187 280 281  1   
188 280 282  1   
189 283 284  1   
190 283 285  1   
191 286 287  1   
192 286 288  1   
193 289 290  1   
194 289 291  1   
195 292 293  1   
196 292 294  1   
197 295 296  1   
198 295 297  1   
199 298 299  1   
200 298 300  1   
201 301 302  1   
202 301 303  1   
203 304 305  1   
204 304 306  1   
205 307 308  1   
206 307 309  1   
207 310 311  1   
208 310 312  1   
209 313 314  1   
210 313 315  1   
211 316 317  1   
212 316 318  1   
213 319 320  1   
214 319 321  1   
215 322 323  1   
216 322 324  1   
217 325 326  1   
218 325 327  1   
219 328 329  1   
220 328 330  1   
221 331 332  1   
222 331 333  1   
223 334 335  1   
224 334 336  1   
225 337 338  1   
226 337 339  1   
227 340 341  1   
228 340 342  1   
229 343 344  1   
230 343 345  1   
231 346 347  1   
232 346 348  1   
@<TRIPOS>SUBSTRUCTURE
  1 HOH   1 GROUP 4 B **** 0
  2 HOH   4 GROUP 4 B **** 0
  3 HOH   7 GROUP 4 B **** 0
  4 HOH  10 GROUP 4 B **** 0
  5 HOH  13 GROUP 4 B **** 0
  6 HOH  16 GROUP 4 B **** 0
  7 HOH  19 GROUP 4 B **** 0
  8 HOH  22 GROUP 4 B **** 0
  9 HOH  25 GROUP 4 B **** 0
 10 HOH  28 GROUP 4 B **** 0
 11 HOH  31 GROUP 4 B **** 0
 12 HOH  34 GROUP 4 B **** 0
 13 HOH  37 GROUP 4 B **** 0
 14 HOH  40 GROUP 4 B **** 0
 15 HOH  43 GROUP 4 B **** 0
 16 HOH  46 GROUP 4 B **** 0
 17 HOH  49 GROUP 4 B **** 0
 18 HOH  52 GROUP 4 B **** 0
 19 HOH  55 GROUP 4 B **** 0
 20 HOH  58 GROUP 4 B **** 0
 21 HOH  61 GROUP 4 B **** 0
 22 HOH  64 GROUP 4 B **** 0
 23 HOH  67 GROUP 4 B **** 0
 24 HOH  70 GROUP 4 B **** 0
 25 HOH  73 GROUP 4 B **** 0
 26 HOH  76 GROUP 4 B **** 0
 27 HOH  79 GROUP 4 B **** 0
 28 HOH  82 GROUP 4 B **** 0
 29 HOH  85 GROUP 4 B **** 0
 30 HOH  88 GROUP 4 B **** 0
 31 HOH  91 GROUP 4 B **** 0
 32 HOH  94 GROUP 4 B **** 0
 33 HOH  97 GROUP 4 B **** 0
 34 HOH 100 GROUP 4 B **** 0
 35 HOH 103 GROUP 4 B **** 0
 36 HOH 106 GROUP 4 B **** 0
 37 HOH 109 GROUP 4 B **** 0
 38 HOH 112 GROUP 4 B **** 0
 39 HOH 115 GROUP 4 B **** 0
 40 HOH 118 GROUP 4 B **** 0
 41 HOH 121 GROUP 4 B **** 0
 42 HOH 124 GROUP 4 B **** 0
 43 HOH 127 GROUP 4 B **** 0
 44 HOH 130 GROUP 4 B **** 0
 45 HOH 133 GROUP 4 B **** 0
 46 HOH 136 GROUP 4 B **** 0
 47 HOH 139 GROUP 4 B **** 0
 48 HOH 142 GROUP 4 B **** 0
 49 HOH 145 GROUP 4 B **** 0
 50 HOH 148 GROUP 4 B **** 0
 51 HOH 151 GROUP 4 B **** 0
 52 HOH 154 GROUP 4 B **** 0
 53 HOH 157 GROUP 4 B **** 0
 54 HOH 160 GROUP 4 B **** 0
 55 HOH 163 GROUP 4 B **** 0
 56 HOH 166 GROUP 4 B **** 0
 57 HOH 169 GROUP 4 B **** 0
 58 HOH 172 GROUP 4 B **** 0
 59 HOH 175 GROUP 4 B **** 0
 60 HOH 178 GROUP 4 B **** 0
 61 HOH 181 GROUP 4 B **** 0
 62 HOH 184 GROUP 4 B **** 0
 63 HOH 187 GROUP 4 B **** 0
 64 HOH 190 GROUP 4 B **** 0
 65 HOH 193 GROUP 4 B **** 0
 66 HOH 196 GROUP 4 B **** 0
 67 HOH 199 GROUP 4 B **** 0
 68 HOH 202 GROUP 4 B **** 0
 69 HOH 205 GROUP 4 B **** 0
 70 HOH 208 GROUP 4 B **** 0
 71 HOH 211 GROUP 4 B **** 0
 72 HOH 214 GROUP 4 B **** 0
 73 HOH 217 GROUP 4 B **** 0
 74 HOH 220 GROUP 4 B **** 0
 75 HOH 223 GROUP 4 B **** 0
 76 HOH 226 GROUP 4 B **** 0
 77 HOH 229 GROUP 4 B **** 0
 78 HOH 232 GROUP 4 B **** 0
 79 HOH 235 GROUP 4 B **** 0
 80 HOH 238 GROUP 4 B **** 0
 81 HOH 241 GROUP 4 B **** 0
 82 HOH 244 GROUP 4 B **** 0
 83 HOH 247 GROUP 4 B **** 0
 84 HOH 250 GROUP 4 B **** 0
 85 HOH 253 GROUP 4 B **** 0
 86 HOH 256 GROUP 4 B **** 0
 87 HOH 259 GROUP 4 B **** 0
 88 HOH 262 GROUP 4 B **** 0
 89 HOH 265 GROUP 4 B **** 0
 90 HOH 268 GROUP 4 B **** 0
 91 HOH 271 GROUP 4 B **** 0
 92 HOH 274 GROUP 4 B **** 0
 93 HOH 277 GROUP 4 B **** 0
 94 HOH 280 GROUP 4 B **** 0
 95 HOH 283 GROUP 4 B **** 0
 96 HOH 286 GROUP 4 B **** 0
 97 HOH 289 GROUP 4 B **** 0
 98 HOH 292 GROUP 4 B **** 0
 99 HOH 295 GROUP 4 B **** 0
100 HOH 298 GROUP 4 B **** 0
101 HOH 301 GROUP 4 B **** 0
102 HOH 304 GROUP 4 B **** 0
103 HOH 307 GROUP 4 B **** 0
104 HOH 310 GROUP 4 B **** 0
105 HOH 313 GROUP 4 B **** 0
106 HOH 316 GROUP 4 B **** 0
107 HOH 319 GROUP 4 B **** 0
108 HOH 322 GROUP 4 B **** 0
109 HOH 325 GROUP 4 B **** 0
110 HOH 328 GROUP 4 B **** 0
111 HOH 331 GROUP 4 B **** 0
112 HOH 334 GROUP 4 B **** 0
113 HOH 337 GROUP 4 B **** 0
114 HOH 340 GROUP 4 B **** 0
115 HOH 343 GROUP 4 B **** 0
116 HOH 346 GROUP 4 B **** 0

# MOE 2012.10 (io_trps.svl 2012.10)
