@<TRIPOS>MOLECULE
2hz4.C
65 72 1 0 0 
SMALL
USER_CHARGES


@<TRIPOS>ATOM
  1 CAB      3.6133    38.6749    44.2761 C.3   1 Q4ST   0.0400 
  2 HAB1     3.1683    39.5296    44.7855 H     1 Q4ST   0.0800 
  3 HAB2     2.8283    38.0840    43.8042 H     1 Q4ST   0.0800 
  4 HAB3     4.3096    39.0276    43.5152 H     1 Q4ST   0.0800 
  5 OAQ      4.3182    37.8608    45.2312 O.3   1 Q4ST  -0.5600 
  6 CBF      5.0281    36.6372    44.8750 C.3   1 Q4ST   0.2000 
  7 HBF      5.7178    36.5903    45.7177 H     1 Q4ST   0.0800 
  8 CBD      6.0251    36.6586    43.6789 C.3   1 Q4ST   0.1900 
  9 HBD      6.6588    35.7743    43.7455 H     1 Q4ST   0.0800 
 10 NAO      6.9628    37.8000    43.7614 N.3   1 Q4ST  -0.9000 
 11 HAO      6.9278    38.1158    44.7201 H     1 Q4ST   0.3600 
 12 CAA      8.4010    37.7100    43.4189 C.3   1 Q4ST   0.0300 
 13 HAA1     8.5086    37.3717    42.3883 H     1 Q4ST   0.0800 
 14 HAA2     8.8899    37.0010    44.0870 H     1 Q4ST   0.0800 
 15 HAA3     8.8629    38.6912    43.5293 H     1 Q4ST   0.0800 
 16 CAN      5.2884    36.5320    42.3303 C.3   1 Q4ST  -0.1600 
 17 HAN1     6.0137    36.4025    41.5270 H     1 Q4ST   0.0800 
 18 HAN2     4.7007    37.4316    42.1476 H     1 Q4ST   0.0800 
 19 CBE      4.3553    35.3057    42.3894 C.3   1 Q4ST   0.4556 
 20 HBE      4.8645    34.6689    41.6660 H     1 Q4ST   0.0800 
 21 OAR      4.3138    34.6189    43.6571 O.3   1 Q4ST  -0.5600 
 22 CBI      4.1340    35.3340    44.9074 C.3   1 Q4ST   0.5356 
 23 CAC      4.7424    34.2223    45.8196 C.3   1 Q4ST  -0.2400 
 24 HAC1     5.8112    34.1363    45.6238 H     1 Q4ST   0.0800 
 25 HAC2     4.2560    33.2705    45.6060 H     1 Q4ST   0.0800 
 26 HAC3     4.5846    34.4842    46.8659 H     1 Q4ST   0.0800 
 27 NBH      2.6639    35.5087    45.1225 N.pl3 1 Q4ST   0.0476 
 28 CAY      1.9491    35.5894    46.3361 C.ar  1 Q4ST  -0.1516 
 29 CAH      2.3872    35.5434    47.6984 C.ar  1 Q4ST  -0.1500 
 30 HAH      3.4381    35.4322    47.9210 H     1 Q4ST   0.1500 
 31 CAF      1.4545    35.6424    48.7510 C.ar  1 Q4ST  -0.1500 
 32 HAF      1.7871    35.6025    49.7777 H     1 Q4ST   0.1500 
 33 CAE      0.0777    35.7947    48.4527 C.ar  1 Q4ST  -0.1500 
 34 HAE     -0.6439    35.8778    49.2520 H     1 Q4ST   0.1500 
 35 CAG     -0.3493    35.8376    47.1023 C.ar  1 Q4ST  -0.1500 
 36 HAG     -1.3956    35.9502    46.8593 H     1 Q4ST   0.1500 
 37 CAX      0.6191    35.7302    46.0801 C.ar  1 Q4ST   0.0000 
 38 CBA      0.4212    35.7505    44.6490 C.ar  1 Q4ST   0.0000 
 39 CBC      1.7308    35.6063    44.0584 C.ar  1 Q4ST  -0.1516 
 40 CBB      1.8667    35.5986    42.7008 C.ar  1 Q4ST  -0.1516 
 41 NBG      2.9924    35.4936    41.9059 N.pl3 1 Q4ST   0.0476 
 42 CAV      2.6295    35.5220    40.5727 C.2   1 Q4ST  -0.3316 
 43 CAL      3.5439    35.4161    39.3642 C.3   1 Q4ST   0.0200 
 44 HAL1     3.7396    34.3642    39.1562 H     1 Q4ST   0.0800 
 45 HAL2     4.4833    35.9243    39.5822 H     1 Q4ST   0.0800 
 46 CAJ      2.8951    36.0647    38.1218 C.3   1 Q4ST  -0.1600 
 47 HAJ1     3.5287    35.8896    37.2523 H     1 Q4ST   0.0800 
 48 HAJ2     2.7937    37.1372    38.2874 H     1 Q4ST   0.0800 
 49 CAI      1.5082    35.4577    37.8686 C.3   1 Q4ST  -0.1600 
 50 HAI1     1.6010    34.3811    37.7253 H     1 Q4ST   0.0800 
 51 HAI2     1.0702    35.9064    36.9770 H     1 Q4ST   0.0800 
 52 CAK      0.6057    35.7413    39.0868 C.3   1 Q4ST   0.0210 
 53 HAK1    -0.2052    35.0129    39.0825 H     1 Q4ST   0.0800 
 54 HAK2     0.1937    36.7443    38.9749 H     1 Q4ST   0.0800 
 55 CAT      1.3001    35.6653    40.4408 C.2   1 Q4ST  -0.1810 
 56 CAZ      0.7523    35.7222    41.7837 C.ar  1 Q4ST   0.0000 
 57 CAW     -0.5288    35.8542    42.3743 C.ar  1 Q4ST   0.0862 
 58 CAU     -0.6924    35.8720    43.7565 C.ar  1 Q4ST  -0.1435 
 59 CAM     -2.1505    36.0349    44.1012 C.3   1 Q4ST   0.2836 
 60 HAM1    -2.3355    36.9492    44.6652 H     1 Q4ST   0.0800 
 61 HAM2    -2.5347    35.1805    44.6583 H     1 Q4ST   0.0800 
 62 NAP     -2.7122    36.1035    42.7481 N.am  1 Q4ST  -0.7301 
 63 HAP     -3.7017    36.2164    42.5798 H     1 Q4ST   0.3700 
 64 CAS     -1.8330    36.0071    41.7617 C.2   1 Q4ST   0.5438 
 65 OAD     -2.0950    36.0400    40.5713 O.2   1 Q4ST  -0.5700 
@<TRIPOS>BOND
  1   1   2  1   
  2   1   3  1   
  3   1   4  1   
  4   1   5  1   
  5   5   6  1   
  6   6   7  1   
  7   6   8  1   
  8   6  22  1   
  9   8   9  1   
 10   8  10  1   
 11   8  16  1   
 12  10  11  1   
 13  10  12  1   
 14  12  13  1   
 15  12  14  1   
 16  12  15  1   
 17  16  17  1   
 18  16  18  1   
 19  16  19  1   
 20  19  20  1   
 21  19  21  1   
 22  19  41  1   
 23  21  22  1   
 24  22  23  1   
 25  22  27  1   
 26  23  24  1   
 27  23  25  1   
 28  23  26  1   
 29  27  28  1   
 30  27  39  1   
 31  28  29  ar  
 32  28  37  ar  
 33  29  30  1   
 34  29  31  ar  
 35  31  32  1   
 36  31  33  ar  
 37  33  34  1   
 38  33  35  ar  
 39  35  36  1   
 40  35  37  ar  
 41  37  38  1   
 42  38  39  ar  
 43  38  58  ar  
 44  39  40  ar  
 45  40  41  1   
 46  40  56  ar  
 47  41  42  1   
 48  42  43  1   
 49  42  55  2   
 50  43  44  1   
 51  43  45  1   
 52  43  46  1   
 53  46  47  1   
 54  46  48  1   
 55  46  49  1   
 56  49  50  1   
 57  49  51  1   
 58  49  52  1   
 59  52  53  1   
 60  52  54  1   
 61  52  55  1   
 62  55  56  1   
 63  56  57  ar  
 64  57  58  ar  
 65  57  64  1   
 66  58  59  1   
 67  59  60  1   
 68  59  61  1   
 69  59  62  1   
 70  62  63  1   
 71  62  64  am  
 72  64  65  2   
@<TRIPOS>SUBSTRUCTURE
  1 Q4ST  39 GROUP 4 C **** 0

# MOE 2012.10 (io_trps.svl 2012.10)
