@<TRIPOS>MOLECULE
2hz4.C
24 16 8 0 0 
SMALL
NO_CHARGES


@<TRIPOS>ATOM
  1 O        1.6415    19.2043    28.7955 O.3   1 HOH   0.0000 
  2 H1       2.6015    19.2043    28.7955 H     1 HOH   0.0000 
  3 H2       1.3512    19.8514    29.4426 H     1 HOH   0.0000 
  4 O        6.5194     8.9835    38.5390 O.3   2 HOH   0.0000 
  5 H1       7.4794     8.9835    38.5390 H     2 HOH   0.0000 
  6 H2       6.2291     9.6305    39.1860 H     2 HOH   0.0000 
  7 O      -11.3122    21.6215    13.0671 O.3   3 HOH   0.0000 
  8 H1     -10.3522    21.6215    13.0671 H     3 HOH   0.0000 
  9 H2     -11.6025    22.2685    13.7142 H     3 HOH   0.0000 
 10 O      -18.2263    -0.1528    13.9024 O.3   4 HOH   0.0000 
 11 H1     -17.2663    -0.1528    13.9024 H     4 HOH   0.0000 
 12 H2     -18.5166     0.4943    14.5495 H     4 HOH   0.0000 
 13 O       20.0672    38.5374    32.4764 O.3   5 HOH   0.0000 
 14 H1      21.0272    38.5374    32.4764 H     5 HOH   0.0000 
 15 H2      19.7770    39.1844    33.1235 H     5 HOH   0.0000 
 16 O       -4.2498    16.2533    25.3933 O.3   6 HOH   0.0000 
 17 H1      -3.2898    16.2533    25.3933 H     6 HOH   0.0000 
 18 H2      -4.5400    16.9004    26.0403 H     6 HOH   0.0000 
 19 O       -3.1038     4.4761    26.7896 O.3   7 HOH   0.0000 
 20 H1      -2.1438     4.4761    26.7896 H     7 HOH   0.0000 
 21 H2      -3.3941     5.1231    27.4366 H     7 HOH   0.0000 
 22 O      -26.2140    -1.1596    32.5494 O.3   8 HOH   0.0000 
 23 H1     -25.2540    -1.1596    32.5494 H     8 HOH   0.0000 
 24 H2     -26.5043    -0.5125    33.1965 H     8 HOH   0.0000 
@<TRIPOS>BOND
  1   1   2  1   
  2   1   3  1   
  3   4   5  1   
  4   4   6  1   
  5   7   8  1   
  6   7   9  1   
  7  10  11  1   
  8  10  12  1   
  9  13  14  1   
 10  13  15  1   
 11  16  17  1   
 12  16  18  1   
 13  19  20  1   
 14  19  21  1   
 15  22  23  1   
 16  22  24  1   
@<TRIPOS>SUBSTRUCTURE
  1 HOH   1 GROUP 4 C **** 0
  2 HOH   4 GROUP 4 C **** 0
  3 HOH   7 GROUP 4 C **** 0
  4 HOH  10 GROUP 4 C **** 0
  5 HOH  13 GROUP 4 C **** 0
  6 HOH  16 GROUP 4 C **** 0
  7 HOH  19 GROUP 4 C **** 0
  8 HOH  22 GROUP 4 C **** 0

# MOE 2012.10 (io_trps.svl 2012.10)
