@<TRIPOS>MOLECULE
2g2i.A
38 40 1 0 0 
SMALL
USER_CHARGES


@<TRIPOS>ATOM
  1 PB       2.0394    10.4353    38.0246 P.3   1 ADP   1.3712 
  2 O1B      1.1925    11.6678    38.0463 O.co2 1 ADP  -1.0333 
  3 O2B      1.5474     9.4958    36.7982 O.co2 1 ADP  -1.0333 
  4 O3B      1.8763     9.6305    39.4109 O.co2 1 ADP  -1.0333 
  5 PA       4.2465    11.7594    38.9832 P.3   1 ADP   1.4424 
  6 O1A      5.3282    11.0044    39.6685 O.co2 1 ADP  -0.9500 
  7 O2A      4.8611    13.1337    38.3597 O.co2 1 ADP  -0.9500 
  8 O3A      3.6209    10.8145    37.7924 O.3   1 ADP  -0.5424 
  9 O5'      3.1135    12.1018    40.0790 O.3   1 ADP  -0.5512 
 10 C5'      3.4538    13.3356    40.7494 C.3   1 ADP   0.1200 
 11 H5'1     3.4387    14.1504    40.0255 H     1 ADP   0.0800 
 12 H5'2     4.4534    13.2460    41.1748 H     1 ADP   0.0800 
 13 C4'      2.4448    13.6482    41.8862 C.3   1 ADP   0.2000 
 14 H4'      2.6485    12.9440    42.6928 H     1 ADP   0.0800 
 15 O4'      2.6079    15.0206    42.2776 O.3   1 ADP  -0.5600 
 16 C3'      0.9706    13.4911    41.4418 C.3   1 ADP   0.2000 
 17 H3'      0.8838    13.4052    40.3586 H     1 ADP   0.0800 
 18 O3'      0.4039    12.2977    41.9835 O.3   1 ADP  -0.6800 
 19 H3'     -0.3307    12.5544    42.5458 H     1 ADP   0.4000 
 20 C2'      0.2468    14.7305    41.9516 C.3   1 ADP  -0.1526 
 21 H2'     -0.2109    15.3057    41.1468 H     1 ADP   0.0800 
 22 O2'     -0.8301    14.3685    42.8302 O.3   1 ADP  -0.9274 
 23 C1'      1.3212    15.5350    42.6804 C.3   1 ADP   0.4556 
 24 H1'      1.1861    15.4368    43.7576 H     1 ADP   0.0800 
 25 N9       1.2254    16.9594    42.3530 N.pl3 1 ADP   0.0476 
 26 C8       1.7820    17.6000    41.2790 C.2   1 ADP   0.0365 
 27 H8       2.3735    17.1209    40.5129 H     1 ADP   0.1500 
 28 N7       1.4967    18.8666    41.3132 N.2   1 ADP  -0.5653 
 29 C5       0.7422    19.1216    42.4018 C.ar  1 ADP   0.2272 
 30 C6       0.1454    20.2815    42.9608 C.ar  1 ADP   0.4100 
 31 N6       0.2883    21.5153    42.3330 N.pl3 1 ADP  -0.9000 
 32 H61     -0.1428    22.3374    42.7310 H     1 ADP   0.4000 
 33 H62      0.8232    21.5886    41.4794 H     1 ADP   0.4000 
 34 N1      -0.5677    20.1574    44.1075 N.ar  1 ADP  -0.6200 
 35 C2      -0.7160    18.9745    44.7205 C.ar  1 ADP   0.4700 
 36 H2      -1.2900    18.9193    45.6337 H     1 ADP   0.1500 
 37 N3      -0.1692    17.8666    44.2250 N.ar  1 ADP  -0.5670 
 38 C4       0.5601    17.8956    43.0861 C.ar  1 ADP   0.1054 
@<TRIPOS>BOND
  1   1   2  ar  
  2   1   3  ar  
  3   1   4  ar  
  4   1   8  1   
  5   5   6  ar  
  6   5   7  ar  
  7   5   8  1   
  8   5   9  1   
  9   9  10  1   
 10  10  11  1   
 11  10  12  1   
 12  10  13  1   
 13  13  14  1   
 14  13  15  1   
 15  13  16  1   
 16  15  23  1   
 17  16  17  1   
 18  16  18  1   
 19  16  20  1   
 20  18  19  1   
 21  20  21  1   
 22  20  22  1   
 23  20  23  1   
 24  23  24  1   
 25  23  25  1   
 26  25  26  1   
 27  25  38  1   
 28  26  27  1   
 29  26  28  2   
 30  28  29  1   
 31  29  30  ar  
 32  29  38  ar  
 33  30  31  1   
 34  30  34  ar  
 35  31  32  1   
 36  31  33  1   
 37  34  35  ar  
 38  35  36  1   
 39  35  37  ar  
 40  37  38  ar  
@<TRIPOS>SUBSTRUCTURE
  1 ADP  15 GROUP 4 A **** 0

# MOE 2012.10 (io_trps.svl 2012.10)
