@<TRIPOS>MOLECULE
3qrj.A
381 254 127 0 0 
SMALL
USER_CHARGES


@<TRIPOS>ATOM
  1 O       -0.7520    33.3326    35.6843 O.3     1 HOH   0.0000 
  2 H1       0.2080    33.3326    35.6843 H       1 HOH   0.0000 
  3 H2      -1.0423    33.9796    36.3314 H       1 HOH   0.0000 
  4 O       -8.9573     7.0840    22.6555 O.3     2 HOH   0.0000 
  5 H1      -7.9973     7.0840    22.6555 H       2 HOH   0.0000 
  6 H2      -9.2476     7.7311    23.3026 H       2 HOH   0.0000 
  7 O       -2.2473     5.2167    26.4961 O.3     3 HOH   0.0000 
  8 H1      -1.2873     5.2167    26.4961 H       3 HOH   0.0000 
  9 H2      -2.5376     5.8638    27.1431 H       3 HOH   0.0000 
 10 O       -3.5682    12.7053    26.9091 O.3     4 HOH   0.0000 
 11 H1      -2.6082    12.7053    26.9091 H       4 HOH   0.0000 
 12 H2      -3.8585    13.3523    27.5561 H       4 HOH   0.0000 
 13 O        8.0351    13.1039    25.4464 O.3     5 HOH   0.0000 
 14 H1       8.9951    13.1039    25.4464 H       5 HOH   0.0000 
 15 H2       7.7448    13.7509    26.0934 H       5 HOH   0.0000 
 16 O       -3.0934     7.6928    33.3050 O.3     6 HOH   0.0000 
 17 H1      -2.1334     7.6928    33.3050 H       6 HOH   0.0000 
 18 H2      -3.3837     8.3398    33.9521 H       6 HOH   0.0000 
 19 O      -13.7077     5.2184    23.1222 O.3     7 HOH   0.0000 
 20 H1     -12.7477     5.2184    23.1222 H       7 HOH   0.0000 
 21 H2     -13.9980     5.8654    23.7693 H       7 HOH   0.0000 
 22 O       -6.9457     6.6447    20.9933 O.3     8 HOH   0.0000 
 23 H1      -5.9857     6.6447    20.9933 H       8 HOH   0.0000 
 24 H2      -7.2359     7.2917    21.6403 H       8 HOH   0.0000 
 25 O       -5.0388    16.5510    24.8343 O.3     9 HOH   0.0000 
 26 H1      -4.0788    16.5510    24.8343 H       9 HOH   0.0000 
 27 H2      -5.3291    17.1981    25.4813 H       9 HOH   0.0000 
 28 O       10.5550    17.8661    35.6445 O.3    10 HOH   0.0000 
 29 H1      11.5150    17.8661    35.6445 H      10 HOH   0.0000 
 30 H2      10.2648    18.5132    36.2916 H      10 HOH   0.0000 
 31 O       -7.2722     6.0688    33.8134 O.3    11 HOH   0.0000 
 32 H1      -6.3122     6.0688    33.8134 H      11 HOH   0.0000 
 33 H2      -7.5625     6.7158    34.4605 H      11 HOH   0.0000 
 34 O       -5.0005     9.7714    33.5180 O.3    12 HOH   0.0000 
 35 H1      -4.0405     9.7714    33.5180 H      12 HOH   0.0000 
 36 H2      -5.2908    10.4185    34.1650 H      12 HOH   0.0000 
 37 O       -7.7070    28.5721    43.4946 O.3    13 HOH   0.0000 
 38 H1      -6.7470    28.5721    43.4946 H      13 HOH   0.0000 
 39 H2      -7.9973    29.2191    44.1416 H      13 HOH   0.0000 
 40 O      -18.3011     8.1812    19.1323 O.3    14 HOH   0.0000 
 41 H1     -17.3411     8.1812    19.1323 H      14 HOH   0.0000 
 42 H2     -18.5914     8.8282    19.7794 H      14 HOH   0.0000 
 43 O        2.0144    16.0456    30.2359 O.3    15 HOH   0.0000 
 44 H1       2.9744    16.0456    30.2359 H      15 HOH   0.0000 
 45 H2       1.7241    16.6926    30.8829 H      15 HOH   0.0000 
 46 O      -18.1444     4.4992    16.4407 O.3    16 HOH   0.0000 
 47 H1     -17.1844     4.4992    16.4407 H      16 HOH   0.0000 
 48 H2     -18.4346     5.1463    17.0878 H      16 HOH   0.0000 
 49 O      -29.5373    10.7630    30.6022 O.3    17 HOH   0.0000 
 50 H1     -28.5773    10.7630    30.6022 H      17 HOH   0.0000 
 51 H2     -29.8275    11.4101    31.2492 H      17 HOH   0.0000 
 52 O       -9.7946    28.5683    41.8042 O.3    18 HOH   0.0000 
 53 H1      -8.8346    28.5683    41.8042 H      18 HOH   0.0000 
 54 H2     -10.0849    29.2153    42.4513 H      18 HOH   0.0000 
 55 O      -12.8973    17.6074     8.5962 O.3    19 HOH   0.0000 
 56 H1     -11.9373    17.6074     8.5962 H      19 HOH   0.0000 
 57 H2     -13.1876    18.2544     9.2432 H      19 HOH   0.0000 
 58 O      -17.5234    11.6431    12.5850 O.3    20 HOH   0.0000 
 59 H1     -16.5634    11.6431    12.5850 H      20 HOH   0.0000 
 60 H2     -17.8137    12.2901    13.2320 H      20 HOH   0.0000 
 61 O        5.2231    21.0868    34.1108 O.3    21 HOH  -0.8340 
 62 H1       5.4709    21.9953    33.9392 H      21 HOH   0.4170 
 63 H2       4.4620    20.9356    33.5504 H      21 HOH   0.4170 
 64 O      -12.8657    -0.9387    26.0980 O.3    22 HOH   0.0000 
 65 H1     -11.9057    -0.9387    26.0980 H      22 HOH   0.0000 
 66 H2     -13.1560    -0.2917    26.7451 H      22 HOH   0.0000 
 67 O       -4.2629    12.4381    44.4647 O.3    23 HOH   0.0000 
 68 H1      -3.3029    12.4381    44.4647 H      23 HOH   0.0000 
 69 H2      -4.5531    13.0852    45.1118 H      23 HOH   0.0000 
 70 O        7.4884    13.4938    41.3099 O.3    24 HOH   0.0000 
 71 H1       8.4484    13.4938    41.3099 H      24 HOH   0.0000 
 72 H2       7.1981    14.1409    41.9570 H      24 HOH   0.0000 
 73 O       12.9351    12.2774    32.0890 O.3    25 HOH   0.0000 
 74 H1      13.8951    12.2774    32.0890 H      25 HOH   0.0000 
 75 H2      12.6449    12.9244    32.7360 H      25 HOH   0.0000 
 76 O       -2.4458     3.1913    28.5649 O.3    26 HOH   0.0000 
 77 H1      -1.4858     3.1913    28.5649 H      26 HOH   0.0000 
 78 H2      -2.7361     3.8384    29.2120 H      26 HOH   0.0000 
 79 O      -13.2542    24.2530    18.6429 O.3    27 HOH   0.0000 
 80 H1     -12.2942    24.2530    18.6429 H      27 HOH   0.0000 
 81 H2     -13.5445    24.9000    19.2900 H      27 HOH   0.0000 
 82 O      -18.9176     3.9841    37.3799 O.3    28 HOH   0.0000 
 83 H1     -17.9576     3.9841    37.3799 H      28 HOH   0.0000 
 84 H2     -19.2078     4.6311    38.0269 H      28 HOH   0.0000 
 85 O      -25.0624    14.4534    24.8699 O.3    29 HOH   0.0000 
 86 H1     -24.1024    14.4534    24.8699 H      29 HOH   0.0000 
 87 H2     -25.3527    15.1005    25.5170 H      29 HOH   0.0000 
 88 O      -14.4337    29.1711    30.6632 O.3    30 HOH   0.0000 
 89 H1     -13.4737    29.1711    30.6632 H      30 HOH   0.0000 
 90 H2     -14.7240    29.8182    31.3102 H      30 HOH   0.0000 
 91 O        6.8539    31.0556    26.5503 O.3    31 HOH   0.0000 
 92 H1       7.8139    31.0556    26.5503 H      31 HOH   0.0000 
 93 H2       6.5636    31.7026    27.1974 H      31 HOH   0.0000 
 94 O      -12.4625    11.0608    49.6510 O.3    32 HOH   0.0000 
 95 H1     -11.5025    11.0608    49.6510 H      32 HOH   0.0000 
 96 H2     -12.7528    11.7079    50.2980 H      32 HOH   0.0000 
 97 O       -1.1655    16.9949    50.0768 O.3    33 HOH  -0.8340 
 98 H1      -1.9398    17.0834    49.5211 H      33 HOH   0.4170 
 99 H2      -1.0299    16.0502    50.1508 H      33 HOH   0.4170 
100 O        4.0081    12.0862    23.9386 O.3    34 HOH   0.0000 
101 H1       4.9681    12.0862    23.9386 H      34 HOH   0.0000 
102 H2       3.7178    12.7332    24.5857 H      34 HOH   0.0000 
103 O      -27.5056    20.1912    27.4213 O.3    35 HOH   0.0000 
104 H1     -26.5456    20.1912    27.4213 H      35 HOH   0.0000 
105 H2     -27.7959    20.8382    28.0684 H      35 HOH   0.0000 
106 O      -15.4125    -0.1700    27.7514 O.3    36 HOH   0.0000 
107 H1     -14.4525    -0.1700    27.7514 H      36 HOH   0.0000 
108 H2     -15.7028     0.4771    28.3985 H      36 HOH   0.0000 
109 O       -8.4780    10.0512    47.0738 O.3    37 HOH   0.0000 
110 H1      -7.5180    10.0512    47.0738 H      37 HOH   0.0000 
111 H2      -8.7682    10.6983    47.7208 H      37 HOH   0.0000 
112 O       -4.5495     5.3801    33.3434 O.3    38 HOH   0.0000 
113 H1      -3.5895     5.3801    33.3434 H      38 HOH   0.0000 
114 H2      -4.8398     6.0271    33.9905 H      38 HOH   0.0000 
115 O        1.9334    13.6924    24.9999 O.3    39 HOH   0.0000 
116 H1       2.8934    13.6924    24.9999 H      39 HOH   0.0000 
117 H2       1.6431    14.3394    25.6470 H      39 HOH   0.0000 
118 O        1.5348    18.5381    26.7096 O.3    40 HOH   0.0000 
119 H1       2.4948    18.5381    26.7096 H      40 HOH   0.0000 
120 H2       1.2445    19.1852    27.3567 H      40 HOH   0.0000 
121 O        9.0229    11.4785    38.4386 O.3    41 HOH   0.0000 
122 H1       9.9829    11.4785    38.4386 H      41 HOH   0.0000 
123 H2       8.7326    12.1255    39.0857 H      41 HOH   0.0000 
124 O       -4.1564     3.5118    31.2469 O.3    42 HOH   0.0000 
125 H1      -3.1964     3.5118    31.2469 H      42 HOH   0.0000 
126 H2      -4.4467     4.1588    31.8939 H      42 HOH   0.0000 
127 O      -32.4747    23.0606    29.1294 O.3    43 HOH   0.0000 
128 H1     -31.5147    23.0606    29.1294 H      43 HOH   0.0000 
129 H2     -32.7650    23.7077    29.7765 H      43 HOH   0.0000 
130 O       -1.2080     8.0275    35.3225 O.3    44 HOH   0.0000 
131 H1      -0.2480     8.0275    35.3225 H      44 HOH   0.0000 
132 H2      -1.4983     8.6745    35.9695 H      44 HOH   0.0000 
133 O       10.4498    21.0616    32.3174 O.3    45 HOH  -0.8340 
134 H1      10.8299    20.8448    31.4661 H      45 HOH   0.4170 
135 H2      10.2921    22.0049    32.2766 H      45 HOH   0.4170 
136 O      -16.4663     0.8757    44.6229 O.3    46 HOH   0.0000 
137 H1     -15.5063     0.8757    44.6229 H      46 HOH   0.0000 
138 H2     -16.7566     1.5227    45.2699 H      46 HOH   0.0000 
139 O        6.7727    17.5309    36.1256 O.3    47 HOH  -0.8340 
140 H1       7.2724    16.7184    36.2055 H      47 HOH   0.4170 
141 H2       6.2225    17.3993    35.3535 H      47 HOH   0.4170 
142 O      -15.2839     1.9817    47.0366 O.3    48 HOH   0.0000 
143 H1     -14.3239     1.9817    47.0366 H      48 HOH   0.0000 
144 H2     -15.5742     2.6287    47.6837 H      48 HOH   0.0000 
145 O       -3.0115     1.8105    18.2102 O.3    49 HOH   0.0000 
146 H1      -2.0515     1.8105    18.2102 H      49 HOH   0.0000 
147 H2      -3.3018     2.4575    18.8573 H      49 HOH   0.0000 
148 O      -24.1899    22.7832    24.0602 O.3    50 HOH   0.0000 
149 H1     -23.2299    22.7832    24.0602 H      50 HOH   0.0000 
150 H2     -24.4802    23.4303    24.7073 H      50 HOH   0.0000 
151 O       10.3930     7.3177    24.8214 O.3    51 HOH   0.0000 
152 H1      11.3530     7.3177    24.8214 H      51 HOH   0.0000 
153 H2      10.1027     7.9648    25.4685 H      51 HOH   0.0000 
154 O        1.3193    23.9233    27.3528 O.3    52 HOH  -0.8340 
155 H1       1.1130    24.1529    28.2588 H      52 HOH   0.4170 
156 H2       1.6278    23.0184    27.3988 H      52 HOH   0.4170 
157 O       17.1986    30.9525    42.4509 O.3    53 HOH   0.0000 
158 H1      18.1586    30.9525    42.4509 H      53 HOH   0.0000 
159 H2      16.9083    31.5995    43.0979 H      53 HOH   0.0000 
160 O       18.6563    34.8998    42.0325 O.3    54 HOH   0.0000 
161 H1      19.6163    34.8998    42.0325 H      54 HOH   0.0000 
162 H2      18.3660    35.5468    42.6795 H      54 HOH   0.0000 
163 O       -5.3562    12.8058    48.3905 O.3    55 HOH   0.0000 
164 H1      -4.3962    12.8058    48.3905 H      55 HOH   0.0000 
165 H2      -5.6465    13.4529    49.0376 H      55 HOH   0.0000 
166 O      -17.3286     8.4816    14.2849 O.3    56 HOH   0.0000 
167 H1     -16.3686     8.4816    14.2849 H      56 HOH   0.0000 
168 H2     -17.6189     9.1286    14.9319 H      56 HOH   0.0000 
169 O        4.6188    15.9731    27.7517 O.3    57 HOH   0.0000 
170 H1       5.5788    15.9731    27.7517 H      57 HOH   0.0000 
171 H2       4.3285    16.6202    28.3988 H      57 HOH   0.0000 
172 O      -13.3920     1.1272     8.6402 O.3    58 HOH   0.0000 
173 H1     -12.4320     1.1272     8.6402 H      58 HOH   0.0000 
174 H2     -13.6823     1.7743     9.2872 H      58 HOH   0.0000 
175 O       -2.3189    26.1480    40.8420 O.3    59 HOH  -0.8340 
176 H1      -1.9050    25.7564    41.6112 H      59 HOH   0.4170 
177 H2      -2.9669    26.7544    41.2007 H      59 HOH   0.4170 
178 O       11.9518    14.0552    51.4782 O.3    60 HOH   0.0000 
179 H1      12.9118    14.0552    51.4782 H      60 HOH   0.0000 
180 H2      11.6616    14.7022    52.1252 H      60 HOH   0.0000 
181 O       -6.6517    13.5599    21.9002 O.3    61 HOH   0.0000 
182 H1      -5.6917    13.5599    21.9002 H      61 HOH   0.0000 
183 H2      -6.9420    14.2069    22.5473 H      61 HOH   0.0000 
184 O        8.4524    36.4953    50.5813 O.3    62 HOH   0.0000 
185 H1       9.4124    36.4953    50.5813 H      62 HOH   0.0000 
186 H2       8.1622    37.1423    51.2283 H      62 HOH   0.0000 
187 O        2.4222    38.9853    39.3188 O.3    63 HOH   0.0000 
188 H1       3.3822    38.9853    39.3188 H      63 HOH   0.0000 
189 H2       2.1319    39.6324    39.9659 H      63 HOH   0.0000 
190 O      -14.0636    20.9035    51.3635 O.3    64 HOH   0.0000 
191 H1     -13.1036    20.9035    51.3635 H      64 HOH   0.0000 
192 H2     -14.3539    21.5506    52.0106 H      64 HOH   0.0000 
193 O        9.1138    33.8173    52.4912 O.3    65 HOH   0.0000 
194 H1      10.0738    33.8173    52.4912 H      65 HOH   0.0000 
195 H2       8.8236    34.4643    53.1382 H      65 HOH   0.0000 
196 O      -14.3152    28.4824    23.9584 O.3    66 HOH   0.0000 
197 H1     -13.3552    28.4824    23.9584 H      66 HOH   0.0000 
198 H2     -14.6055    29.1294    24.6054 H      66 HOH   0.0000 
199 O       -6.8052    17.5344    15.0999 O.3    67 HOH   0.0000 
200 H1      -5.8452    17.5344    15.0999 H      67 HOH   0.0000 
201 H2      -7.0954    18.1815    15.7470 H      67 HOH   0.0000 
202 O       -0.6078    13.6742    42.8685 O.3    68 HOH  -0.8340 
203 H1      -0.0395    14.4443    42.8556 H      68 HOH   0.4170 
204 H2      -0.5451    13.3447    43.7650 H      68 HOH   0.4170 
205 O      -13.6103    31.0642    28.9040 O.3    69 HOH   0.0000 
206 H1     -12.6503    31.0642    28.9040 H      69 HOH   0.0000 
207 H2     -13.9006    31.7112    29.5510 H      69 HOH   0.0000 
208 O      -16.8522    22.8489    15.9954 O.3    70 HOH   0.0000 
209 H1     -15.8922    22.8489    15.9954 H      70 HOH   0.0000 
210 H2     -17.1425    23.4960    16.6424 H      70 HOH   0.0000 
211 O       -2.0618    13.0697    22.1863 O.3    71 HOH   0.0000 
212 H1      -1.1018    13.0697    22.1863 H      71 HOH   0.0000 
213 H2      -2.3521    13.7168    22.8334 H      71 HOH   0.0000 
214 O      -12.7230     0.0719    42.6308 O.3    72 HOH   0.0000 
215 H1     -11.7630     0.0719    42.6308 H      72 HOH   0.0000 
216 H2     -13.0133     0.7190    43.2778 H      72 HOH   0.0000 
217 O      -16.7433    20.4838    50.7749 O.3    73 HOH   0.0000 
218 H1     -15.7833    20.4838    50.7749 H      73 HOH   0.0000 
219 H2     -17.0335    21.1309    51.4220 H      73 HOH   0.0000 
220 O      -14.8861     5.5211    13.9282 O.3    74 HOH   0.0000 
221 H1     -13.9261     5.5211    13.9282 H      74 HOH   0.0000 
222 H2     -15.1764     6.1681    14.5753 H      74 HOH   0.0000 
223 O       -0.2727    29.6292    35.4439 O.3    75 HOH   0.0000 
224 H1       0.6873    29.6292    35.4439 H      75 HOH   0.0000 
225 H2      -0.5630    30.2762    36.0909 H      75 HOH   0.0000 
226 O       -2.3306     5.6710    39.4288 O.3    76 HOH   0.0000 
227 H1      -1.3706     5.6710    39.4288 H      76 HOH   0.0000 
228 H2      -2.6209     6.3181    40.0758 H      76 HOH   0.0000 
229 O       -5.7652    10.5960    46.6823 O.3    77 HOH   0.0000 
230 H1      -4.8052    10.5960    46.6823 H      77 HOH   0.0000 
231 H2      -6.0555    11.2430    47.3293 H      77 HOH   0.0000 
232 O      -17.8596    21.6177    12.9299 O.3    78 HOH   0.0000 
233 H1     -16.8996    21.6177    12.9299 H      78 HOH   0.0000 
234 H2     -18.1498    22.2647    13.5770 H      78 HOH   0.0000 
235 O       -8.0744     2.2401    42.7913 O.3    79 HOH   0.0000 
236 H1      -7.1144     2.2401    42.7913 H      79 HOH   0.0000 
237 H2      -8.3646     2.8872    43.4383 H      79 HOH   0.0000 
238 O       -5.8874    36.4936    30.2484 O.3    80 HOH   0.0000 
239 H1      -4.9274    36.4936    30.2484 H      80 HOH   0.0000 
240 H2      -6.1776    37.1406    30.8954 H      80 HOH   0.0000 
241 O      -30.3871     7.8419    34.2185 O.3    81 HOH   0.0000 
242 H1     -29.4271     7.8419    34.2185 H      81 HOH   0.0000 
243 H2     -30.6774     8.4890    34.8656 H      81 HOH   0.0000 
244 O      -27.1950    26.3545    34.6475 O.3    82 HOH   0.0000 
245 H1     -26.2350    26.3545    34.6475 H      82 HOH   0.0000 
246 H2     -27.4853    27.0016    35.2945 H      82 HOH   0.0000 
247 O        7.4557    11.7880    47.6226 O.3    83 HOH   0.0000 
248 H1       8.4157    11.7880    47.6226 H      83 HOH   0.0000 
249 H2       7.1655    12.4351    48.2696 H      83 HOH   0.0000 
250 O      -19.0696    26.8478    19.7910 O.3    84 HOH   0.0000 
251 H1     -18.1096    26.8478    19.7910 H      84 HOH   0.0000 
252 H2     -19.3598    27.4948    20.4381 H      84 HOH   0.0000 
253 O      -11.5405    18.2938    47.8526 O.3    85 HOH   0.0000 
254 H1     -10.5805    18.2938    47.8526 H      85 HOH   0.0000 
255 H2     -11.8308    18.9409    48.4997 H      85 HOH   0.0000 
256 O        2.9596     4.6945    32.5890 O.3    86 HOH   0.0000 
257 H1       3.9196     4.6945    32.5890 H      86 HOH   0.0000 
258 H2       2.6693     5.3416    33.2360 H      86 HOH   0.0000 
259 O      -12.7572    12.3443     8.8709 O.3    87 HOH   0.0000 
260 H1     -11.7972    12.3443     8.8709 H      87 HOH   0.0000 
261 H2     -13.0475    12.9914     9.5180 H      87 HOH   0.0000 
262 O        9.3690    10.5067    46.0579 O.3    88 HOH   0.0000 
263 H1      10.3290    10.5067    46.0579 H      88 HOH   0.0000 
264 H2       9.0788    11.1537    46.7050 H      88 HOH   0.0000 
265 O        1.0971    18.3687    52.4096 O.3    89 HOH   0.0000 
266 H1       2.0571    18.3687    52.4096 H      89 HOH   0.0000 
267 H2       0.8068    19.0157    53.0567 H      89 HOH   0.0000 
268 O       -2.1960    10.7136    44.9018 O.3    90 HOH   0.0000 
269 H1      -1.2360    10.7136    44.9018 H      90 HOH   0.0000 
270 H2      -2.4862    11.3607    45.5489 H      90 HOH   0.0000 
271 O      -12.0413    -1.9131    40.7526 O.3    91 HOH   0.0000 
272 H1     -11.0813    -1.9131    40.7526 H      91 HOH   0.0000 
273 H2     -12.3316    -1.2660    41.3996 H      91 HOH   0.0000 
274 O      -16.3830    23.2893    27.8284 O.3    92 HOH   0.0000 
275 H1     -15.4230    23.2893    27.8284 H      92 HOH   0.0000 
276 H2     -16.6733    23.9363    28.4754 H      92 HOH   0.0000 
277 O       11.6992    11.5750    46.8181 O.3    93 HOH   0.0000 
278 H1      12.6592    11.5750    46.8181 H      93 HOH   0.0000 
279 H2      11.4089    12.2220    47.4652 H      93 HOH   0.0000 
280 O      -29.4498    23.1016    34.1601 O.3    94 HOH   0.0000 
281 H1     -28.4898    23.1016    34.1601 H      94 HOH   0.0000 
282 H2     -29.7401    23.7487    34.8072 H      94 HOH   0.0000 
283 O       -0.6688    25.9192    22.8584 O.3    95 HOH   0.0000 
284 H1       0.2912    25.9192    22.8584 H      95 HOH   0.0000 
285 H2      -0.9591    26.5663    23.5055 H      95 HOH   0.0000 
286 O       14.6337    27.0070    48.9406 O.3    96 HOH   0.0000 
287 H1      15.5937    27.0070    48.9406 H      96 HOH   0.0000 
288 H2      14.3435    27.6540    49.5877 H      96 HOH   0.0000 
289 O        3.5978    13.1422    19.6644 O.3    97 HOH   0.0000 
290 H1       4.5578    13.1422    19.6644 H      97 HOH   0.0000 
291 H2       3.3075    13.7893    20.3114 H      97 HOH   0.0000 
292 O        2.5142    15.2860    21.0785 O.3    98 HOH   0.0000 
293 H1       3.4742    15.2860    21.0785 H      98 HOH   0.0000 
294 H2       2.2239    15.9330    21.7256 H      98 HOH   0.0000 
295 O      -10.0423    11.4332    12.3119 O.3    99 HOH   0.0000 
296 H1      -9.0823    11.4332    12.3119 H      99 HOH   0.0000 
297 H2     -10.3326    12.0802    12.9589 H      99 HOH   0.0000 
298 O       -3.2599     4.1159    35.2779 O.3   100 HOH   0.0000 
299 H1      -2.2999     4.1159    35.2779 H     100 HOH   0.0000 
300 H2      -3.5502     4.7629    35.9249 H     100 HOH   0.0000 
301 O        7.3537    -0.0116    28.5587 O.3   101 HOH   0.0000 
302 H1       8.3137    -0.0116    28.5587 H     101 HOH   0.0000 
303 H2       7.0634     0.6355    29.2058 H     101 HOH   0.0000 
304 O       10.8039    36.1454    35.0645 O.3   102 HOH   0.0000 
305 H1      11.7639    36.1454    35.0645 H     102 HOH   0.0000 
306 H2      10.5136    36.7924    35.7116 H     102 HOH   0.0000 
307 O      -18.3425    -0.8782    23.7400 O.3   103 HOH   0.0000 
308 H1     -17.3825    -0.8782    23.7400 H     103 HOH   0.0000 
309 H2     -18.6327    -0.2312    24.3870 H     103 HOH   0.0000 
310 O      -14.8774     1.8810    39.1325 O.3   104 HOH   0.0000 
311 H1     -13.9174     1.8810    39.1325 H     104 HOH   0.0000 
312 H2     -15.1676     2.5280    39.7795 H     104 HOH   0.0000 
313 O       14.8740    20.8862    31.9065 O.3   105 HOH   0.0000 
314 H1      15.8340    20.8862    31.9065 H     105 HOH   0.0000 
315 H2      14.5837    21.5333    32.5535 H     105 HOH   0.0000 
316 O       -3.1163     9.3259    47.0554 O.3   106 HOH   0.0000 
317 H1      -2.1563     9.3259    47.0554 H     106 HOH   0.0000 
318 H2      -3.4066     9.9730    47.7025 H     106 HOH   0.0000 
319 O       -6.5936    29.8166    39.4739 O.3   107 HOH   0.0000 
320 H1      -5.6336    29.8166    39.4739 H     107 HOH   0.0000 
321 H2      -6.8839    30.4636    40.1210 H     107 HOH   0.0000 
322 O        9.8057    23.0074    31.3872 O.3   108 HOH  -0.8340 
323 H1       9.0939    23.4498    31.8497 H     108 HOH   0.4170 
324 H2       9.8580    23.4552    30.5428 H     108 HOH   0.4170 
325 O      -22.0487     7.5145    45.7427 O.3   109 HOH   0.0000 
326 H1     -21.0887     7.5145    45.7427 H     109 HOH   0.0000 
327 H2     -22.3390     8.1615    46.3897 H     109 HOH   0.0000 
328 O       16.2923    18.9459    40.6138 O.3   110 HOH   0.0000 
329 H1      17.2523    18.9459    40.6138 H     110 HOH   0.0000 
330 H2      16.0020    19.5930    41.2609 H     110 HOH   0.0000 
331 O      -17.1434     0.6599    39.7853 O.3   111 HOH   0.0000 
332 H1     -16.1834     0.6599    39.7853 H     111 HOH   0.0000 
333 H2     -17.4337     1.3069    40.4324 H     111 HOH   0.0000 
334 O      -20.9298     7.6904    42.0218 O.3   112 HOH   0.0000 
335 H1     -19.9698     7.6904    42.0218 H     112 HOH   0.0000 
336 H2     -21.2200     8.3374    42.6689 H     112 HOH   0.0000 
337 O       -4.0541    22.7960    14.7900 O.3   113 HOH   0.0000 
338 H1      -3.0941    22.7960    14.7900 H     113 HOH   0.0000 
339 H2      -4.3443    23.4431    15.4370 H     113 HOH   0.0000 
340 O        9.7681    40.3223    39.8190 O.3   114 HOH   0.0000 
341 H1      10.7281    40.3223    39.8190 H     114 HOH   0.0000 
342 H2       9.4778    40.9694    40.4660 H     114 HOH   0.0000 
343 O       19.6494    34.6936    44.8728 O.3   115 HOH   0.0000 
344 H1      20.6094    34.6936    44.8728 H     115 HOH   0.0000 
345 H2      19.3592    35.3406    45.5198 H     115 HOH   0.0000 
346 O        9.0011    26.7448    56.2555 O.3   116 HOH   0.0000 
347 H1       9.9611    26.7448    56.2555 H     116 HOH   0.0000 
348 H2       8.7109    27.3918    56.9025 H     116 HOH   0.0000 
349 O       15.1360    35.7301    34.0516 O.3   117 HOH   0.0000 
350 H1      16.0960    35.7301    34.0516 H     117 HOH   0.0000 
351 H2      14.8457    36.3771    34.6987 H     117 HOH   0.0000 
352 O      -17.1210    28.5848    31.2626 O.3   118 HOH   0.0000 
353 H1     -16.1610    28.5848    31.2626 H     118 HOH   0.0000 
354 H2     -17.4113    29.2319    31.9096 H     118 HOH   0.0000 
355 O        4.4206    18.9775    28.3563 O.3   119 HOH  -0.8340 
356 H1       3.5360    18.9074    28.7151 H     119 HOH   0.4170 
357 H2       4.4052    19.7800    27.8349 H     119 HOH   0.4170 
358 O       -8.7942     1.0193    38.3920 O.3   120 HOH   0.0000 
359 H1      -7.8342     1.0193    38.3920 H     120 HOH   0.0000 
360 H2      -9.0845     1.6663    39.0390 H     120 HOH   0.0000 
361 O      -21.9512     2.4966    22.8745 O.3   121 HOH   0.0000 
362 H1     -20.9912     2.4966    22.8745 H     121 HOH   0.0000 
363 H2     -22.2415     3.1437    23.5216 H     121 HOH   0.0000 
364 O      -20.7439    17.7010    11.9693 O.3   122 HOH   0.0000 
365 H1     -19.7839    17.7010    11.9693 H     122 HOH   0.0000 
366 H2     -21.0342    18.3481    12.6164 H     122 HOH   0.0000 
367 O      -19.9271    27.7127    26.5084 O.3   123 HOH   0.0000 
368 H1     -18.9671    27.7127    26.5084 H     123 HOH   0.0000 
369 H2     -20.2173    28.3598    27.1554 H     123 HOH   0.0000 
370 O      -14.6291    23.6453    44.3205 O.3   124 HOH   0.0000 
371 H1     -13.6691    23.6453    44.3205 H     124 HOH   0.0000 
372 H2     -14.9194    24.2924    44.9676 H     124 HOH   0.0000 
373 O        4.1694    35.6813    29.7119 O.3   125 HOH   0.0000 
374 H1       5.1294    35.6813    29.7119 H     125 HOH   0.0000 
375 H2       3.8791    36.3283    30.3589 H     125 HOH   0.0000 
376 O      -26.7268    16.6936    25.1874 O.3   126 HOH   0.0000 
377 H1     -25.7668    16.6936    25.1874 H     126 HOH   0.0000 
378 H2     -27.0171    17.3406    25.8345 H     126 HOH   0.0000 
379 O      -29.4866     7.5573    31.8757 O.3   127 HOH   0.0000 
380 H1     -28.5266     7.5573    31.8757 H     127 HOH   0.0000 
381 H2     -29.7769     8.2043    32.5227 H     127 HOH   0.0000 
@<TRIPOS>BOND
  1   1   2  1   
  2   1   3  1   
  3   4   5  1   
  4   4   6  1   
  5   7   8  1   
  6   7   9  1   
  7  10  11  1   
  8  10  12  1   
  9  13  14  1   
 10  13  15  1   
 11  16  17  1   
 12  16  18  1   
 13  19  20  1   
 14  19  21  1   
 15  22  23  1   
 16  22  24  1   
 17  25  26  1   
 18  25  27  1   
 19  28  29  1   
 20  28  30  1   
 21  31  32  1   
 22  31  33  1   
 23  34  35  1   
 24  34  36  1   
 25  37  38  1   
 26  37  39  1   
 27  40  41  1   
 28  40  42  1   
 29  43  44  1   
 30  43  45  1   
 31  46  47  1   
 32  46  48  1   
 33  49  50  1   
 34  49  51  1   
 35  52  53  1   
 36  52  54  1   
 37  55  56  1   
 38  55  57  1   
 39  58  59  1   
 40  58  60  1   
 41  61  62  1   
 42  61  63  1   
 43  64  65  1   
 44  64  66  1   
 45  67  68  1   
 46  67  69  1   
 47  70  71  1   
 48  70  72  1   
 49  73  74  1   
 50  73  75  1   
 51  76  77  1   
 52  76  78  1   
 53  79  80  1   
 54  79  81  1   
 55  82  83  1   
 56  82  84  1   
 57  85  86  1   
 58  85  87  1   
 59  88  89  1   
 60  88  90  1   
 61  91  92  1   
 62  91  93  1   
 63  94  95  1   
 64  94  96  1   
 65  97  98  1   
 66  97  99  1   
 67 100 101  1   
 68 100 102  1   
 69 103 104  1   
 70 103 105  1   
 71 106 107  1   
 72 106 108  1   
 73 109 110  1   
 74 109 111  1   
 75 112 113  1   
 76 112 114  1   
 77 115 116  1   
 78 115 117  1   
 79 118 119  1   
 80 118 120  1   
 81 121 122  1   
 82 121 123  1   
 83 124 125  1   
 84 124 126  1   
 85 127 128  1   
 86 127 129  1   
 87 130 131  1   
 88 130 132  1   
 89 133 134  1   
 90 133 135  1   
 91 136 137  1   
 92 136 138  1   
 93 139 140  1   
 94 139 141  1   
 95 142 143  1   
 96 142 144  1   
 97 145 146  1   
 98 145 147  1   
 99 148 149  1   
100 148 150  1   
101 151 152  1   
102 151 153  1   
103 154 155  1   
104 154 156  1   
105 157 158  1   
106 157 159  1   
107 160 161  1   
108 160 162  1   
109 163 164  1   
110 163 165  1   
111 166 167  1   
112 166 168  1   
113 169 170  1   
114 169 171  1   
115 172 173  1   
116 172 174  1   
117 175 176  1   
118 175 177  1   
119 178 179  1   
120 178 180  1   
121 181 182  1   
122 181 183  1   
123 184 185  1   
124 184 186  1   
125 187 188  1   
126 187 189  1   
127 190 191  1   
128 190 192  1   
129 193 194  1   
130 193 195  1   
131 196 197  1   
132 196 198  1   
133 199 200  1   
134 199 201  1   
135 202 203  1   
136 202 204  1   
137 205 206  1   
138 205 207  1   
139 208 209  1   
140 208 210  1   
141 211 212  1   
142 211 213  1   
143 214 215  1   
144 214 216  1   
145 217 218  1   
146 217 219  1   
147 220 221  1   
148 220 222  1   
149 223 224  1   
150 223 225  1   
151 226 227  1   
152 226 228  1   
153 229 230  1   
154 229 231  1   
155 232 233  1   
156 232 234  1   
157 235 236  1   
158 235 237  1   
159 238 239  1   
160 238 240  1   
161 241 242  1   
162 241 243  1   
163 244 245  1   
164 244 246  1   
165 247 248  1   
166 247 249  1   
167 250 251  1   
168 250 252  1   
169 253 254  1   
170 253 255  1   
171 256 257  1   
172 256 258  1   
173 259 260  1   
174 259 261  1   
175 262 263  1   
176 262 264  1   
177 265 266  1   
178 265 267  1   
179 268 269  1   
180 268 270  1   
181 271 272  1   
182 271 273  1   
183 274 275  1   
184 274 276  1   
185 277 278  1   
186 277 279  1   
187 280 281  1   
188 280 282  1   
189 283 284  1   
190 283 285  1   
191 286 287  1   
192 286 288  1   
193 289 290  1   
194 289 291  1   
195 292 293  1   
196 292 294  1   
197 295 296  1   
198 295 297  1   
199 298 299  1   
200 298 300  1   
201 301 302  1   
202 301 303  1   
203 304 305  1   
204 304 306  1   
205 307 308  1   
206 307 309  1   
207 310 311  1   
208 310 312  1   
209 313 314  1   
210 313 315  1   
211 316 317  1   
212 316 318  1   
213 319 320  1   
214 319 321  1   
215 322 323  1   
216 322 324  1   
217 325 326  1   
218 325 327  1   
219 328 329  1   
220 328 330  1   
221 331 332  1   
222 331 333  1   
223 334 335  1   
224 334 336  1   
225 337 338  1   
226 337 339  1   
227 340 341  1   
228 340 342  1   
229 343 344  1   
230 343 345  1   
231 346 347  1   
232 346 348  1   
233 349 350  1   
234 349 351  1   
235 352 353  1   
236 352 354  1   
237 355 356  1   
238 355 357  1   
239 358 359  1   
240 358 360  1   
241 361 362  1   
242 361 363  1   
243 364 365  1   
244 364 366  1   
245 367 368  1   
246 367 369  1   
247 370 371  1   
248 370 372  1   
249 373 374  1   
250 373 375  1   
251 376 377  1   
252 376 378  1   
253 379 380  1   
254 379 381  1   
@<TRIPOS>SUBSTRUCTURE
  1 HOH   1 GROUP 4 A **** 0
  2 HOH   4 GROUP 4 A **** 0
  3 HOH   7 GROUP 4 A **** 0
  4 HOH  10 GROUP 4 A **** 0
  5 HOH  13 GROUP 4 A **** 0
  6 HOH  16 GROUP 4 A **** 0
  7 HOH  19 GROUP 4 A **** 0
  8 HOH  22 GROUP 4 A **** 0
  9 HOH  25 GROUP 4 A **** 0
 10 HOH  28 GROUP 4 A **** 0
 11 HOH  31 GROUP 4 A **** 0
 12 HOH  34 GROUP 4 A **** 0
 13 HOH  37 GROUP 4 A **** 0
 14 HOH  40 GROUP 4 A **** 0
 15 HOH  43 GROUP 4 A **** 0
 16 HOH  46 GROUP 4 A **** 0
 17 HOH  49 GROUP 4 A **** 0
 18 HOH  52 GROUP 4 A **** 0
 19 HOH  55 GROUP 4 A **** 0
 20 HOH  58 GROUP 4 A **** 0
 21 HOH  61 GROUP 4 A **** 0
 22 HOH  64 GROUP 4 A **** 0
 23 HOH  67 GROUP 4 A **** 0
 24 HOH  70 GROUP 4 A **** 0
 25 HOH  73 GROUP 4 A **** 0
 26 HOH  76 GROUP 4 A **** 0
 27 HOH  79 GROUP 4 A **** 0
 28 HOH  82 GROUP 4 A **** 0
 29 HOH  85 GROUP 4 A **** 0
 30 HOH  88 GROUP 4 A **** 0
 31 HOH  91 GROUP 4 A **** 0
 32 HOH  94 GROUP 4 A **** 0
 33 HOH  97 GROUP 4 A **** 0
 34 HOH 100 GROUP 4 A **** 0
 35 HOH 103 GROUP 4 A **** 0
 36 HOH 106 GROUP 4 A **** 0
 37 HOH 109 GROUP 4 A **** 0
 38 HOH 112 GROUP 4 A **** 0
 39 HOH 115 GROUP 4 A **** 0
 40 HOH 118 GROUP 4 A **** 0
 41 HOH 121 GROUP 4 A **** 0
 42 HOH 124 GROUP 4 A **** 0
 43 HOH 127 GROUP 4 A **** 0
 44 HOH 130 GROUP 4 A **** 0
 45 HOH 133 GROUP 4 A **** 0
 46 HOH 136 GROUP 4 A **** 0
 47 HOH 139 GROUP 4 A **** 0
 48 HOH 142 GROUP 4 A **** 0
 49 HOH 145 GROUP 4 A **** 0
 50 HOH 148 GROUP 4 A **** 0
 51 HOH 151 GROUP 4 A **** 0
 52 HOH 154 GROUP 4 A **** 0
 53 HOH 157 GROUP 4 A **** 0
 54 HOH 160 GROUP 4 A **** 0
 55 HOH 163 GROUP 4 A **** 0
 56 HOH 166 GROUP 4 A **** 0
 57 HOH 169 GROUP 4 A **** 0
 58 HOH 172 GROUP 4 A **** 0
 59 HOH 175 GROUP 4 A **** 0
 60 HOH 178 GROUP 4 A **** 0
 61 HOH 181 GROUP 4 A **** 0
 62 HOH 184 GROUP 4 A **** 0
 63 HOH 187 GROUP 4 A **** 0
 64 HOH 190 GROUP 4 A **** 0
 65 HOH 193 GROUP 4 A **** 0
 66 HOH 196 GROUP 4 A **** 0
 67 HOH 199 GROUP 4 A **** 0
 68 HOH 202 GROUP 4 A **** 0
 69 HOH 205 GROUP 4 A **** 0
 70 HOH 208 GROUP 4 A **** 0
 71 HOH 211 GROUP 4 A **** 0
 72 HOH 214 GROUP 4 A **** 0
 73 HOH 217 GROUP 4 A **** 0
 74 HOH 220 GROUP 4 A **** 0
 75 HOH 223 GROUP 4 A **** 0
 76 HOH 226 GROUP 4 A **** 0
 77 HOH 229 GROUP 4 A **** 0
 78 HOH 232 GROUP 4 A **** 0
 79 HOH 235 GROUP 4 A **** 0
 80 HOH 238 GROUP 4 A **** 0
 81 HOH 241 GROUP 4 A **** 0
 82 HOH 244 GROUP 4 A **** 0
 83 HOH 247 GROUP 4 A **** 0
 84 HOH 250 GROUP 4 A **** 0
 85 HOH 253 GROUP 4 A **** 0
 86 HOH 256 GROUP 4 A **** 0
 87 HOH 259 GROUP 4 A **** 0
 88 HOH 262 GROUP 4 A **** 0
 89 HOH 265 GROUP 4 A **** 0
 90 HOH 268 GROUP 4 A **** 0
 91 HOH 271 GROUP 4 A **** 0
 92 HOH 274 GROUP 4 A **** 0
 93 HOH 277 GROUP 4 A **** 0
 94 HOH 280 GROUP 4 A **** 0
 95 HOH 283 GROUP 4 A **** 0
 96 HOH 286 GROUP 4 A **** 0
 97 HOH 289 GROUP 4 A **** 0
 98 HOH 292 GROUP 4 A **** 0
 99 HOH 295 GROUP 4 A **** 0
100 HOH 298 GROUP 4 A **** 0
101 HOH 301 GROUP 4 A **** 0
102 HOH 304 GROUP 4 A **** 0
103 HOH 307 GROUP 4 A **** 0
104 HOH 310 GROUP 4 A **** 0
105 HOH 313 GROUP 4 A **** 0
106 HOH 316 GROUP 4 A **** 0
107 HOH 319 GROUP 4 A **** 0
108 HOH 322 GROUP 4 A **** 0
109 HOH 325 GROUP 4 A **** 0
110 HOH 328 GROUP 4 A **** 0
111 HOH 331 GROUP 4 A **** 0
112 HOH 334 GROUP 4 A **** 0
113 HOH 337 GROUP 4 A **** 0
114 HOH 340 GROUP 4 A **** 0
115 HOH 343 GROUP 4 A **** 0
116 HOH 346 GROUP 4 A **** 0
117 HOH 349 GROUP 4 A **** 0
118 HOH 352 GROUP 4 A **** 0
119 HOH 355 GROUP 4 A **** 0
120 HOH 358 GROUP 4 A **** 0
121 HOH 361 GROUP 4 A **** 0
122 HOH 364 GROUP 4 A **** 0
123 HOH 367 GROUP 4 A **** 0
124 HOH 370 GROUP 4 A **** 0
125 HOH 373 GROUP 4 A **** 0
126 HOH 376 GROUP 4 A **** 0
127 HOH 379 GROUP 4 A **** 0

# MOE 2012.10 (io_trps.svl 2012.10)
