@<TRIPOS>MOLECULE
3pyy.B
5 4 1 0 0 
SMALL
USER_CHARGES


@<TRIPOS>ATOM
  1 S       -4.7520    41.3450    35.5030 S.o2  1 SO4   0.0000 
  2 O1      -5.5187    42.5182    35.0721 O.co2 1 SO4  -0.5000 
  3 O2      -4.8649    40.2820    34.4992 O.co2 1 SO4  -0.5000 
  4 O3      -3.3457    41.7187    35.6683 O.co2 1 SO4  -0.5000 
  5 O4      -5.2756    40.8662    36.7848 O.co2 1 SO4  -0.5000 
@<TRIPOS>BOND
  1   1   2  ar  
  2   1   3  ar  
  3   1   4  ar  
  4   1   5  ar  
@<TRIPOS>SUBSTRUCTURE
  1 SO4   1 GROUP 4 B **** 0

# MOE 2012.10 (io_trps.svl 2012.10)
