@<TRIPOS>MOLECULE
3pyy.B
69 73 1 0 0 
SMALL
USER_CHARGES


@<TRIPOS>ATOM
  1 C1       0.5111    17.9859    43.7746 C.ar  1 STI4  -0.1500 
  2 H1       0.4441    16.9545    44.0881 H     1 STI4   0.1500 
  3 C6       1.1594    18.3306    42.6150 C.ar  1 STI4  -0.1500 
  4 H6       1.6112    17.5717    41.9933 H     1 STI4   0.1500 
  5 C5       1.2253    19.6578    42.2561 C.ar  1 STI4   0.0000 
  6 C4       0.6277    20.5786    43.0858 C.ar  1 STI4   0.1600 
  7 H4       0.6848    21.6179    42.7975 H     1 STI4   0.1500 
  8 N3      -0.0159    20.2905    44.2167 N.ar  1 STI4  -0.6200 
  9 C2      -0.0508    18.9918    44.5260 C.ar  1 STI4   0.1600 
 10 H2      -0.5594    18.7096    45.4360 H     1 STI4   0.1500 
 11 C7       1.9035    20.0655    41.0574 C.ar  1 STI4   0.3100 
 12 C12      2.6691    19.1690    40.3564 C.ar  1 STI4  -0.1500 
 13 H12      2.7833    18.1426    40.6724 H     1 STI4   0.1500 
 14 C11      3.2800    19.6555    39.2309 C.ar  1 STI4   0.1600 
 15 H11      3.8900    18.9825    38.6466 H     1 STI4   0.1500 
 16 N10      3.1590    20.9182    38.8208 N.ar  1 STI4  -0.6200 
 17 C9       2.3914    21.7121    39.5709 C.ar  1 STI4   0.7200 
 18 N8       1.7523    21.3379    40.6826 N.ar  1 STI4  -0.6200 
 19 N13      2.2481    23.0396    39.1548 N.pl3 1 STI4  -0.6000 
 20 H13      1.6354    23.6622    39.6618 H     1 STI4   0.4000 
 21 C14      2.9520    23.5098    38.0357 C.ar  1 STI4   0.1000 
 22 C19      4.2530    23.9401    38.1898 C.ar  1 STI4  -0.1435 
 23 C18      4.9636    24.4080    37.1112 C.ar  1 STI4  -0.1500 
 24 H18      5.9832    24.7397    37.2399 H     1 STI4   0.1500 
 25 C17      4.3789    24.4543    35.8698 C.ar  1 STI4  -0.1500 
 26 H17      4.9360    24.8251    35.0222 H     1 STI4   0.1500 
 27 C16      3.0805    24.0267    35.7088 C.ar  1 STI4   0.1170 
 28 C15      2.3662    23.5566    36.7858 C.ar  1 STI4  -0.1500 
 29 H15      1.3471    23.2239    36.6543 H     1 STI4   0.1500 
 30 N21      2.5349    24.0990    34.4204 N.am  1 STI4  -0.5470 
 31 H21      3.1143    24.4395    33.6664 H     1 STI4   0.3700 
 32 C22      1.2472    23.7260    34.1436 C.2   1 STI4   0.5438 
 33 C23      0.7919    24.1852    32.8271 C.ar  1 STI4   0.0862 
 34 C25     -0.5502    24.1488    32.5387 C.ar  1 STI4  -0.1500 
 35 H25     -1.2581    23.7920    33.2722 H     1 STI4   0.1500 
 36 C26     -0.9814    24.5733    31.3018 C.ar  1 STI4  -0.1500 
 37 H26     -2.0348    24.5479    31.0649 H     1 STI4   0.1500 
 38 C27     -0.0816    25.0304    30.3631 C.ar  1 STI4  -0.1435 
 39 C28      1.2604    25.0599    30.6715 C.ar  1 STI4  -0.1500 
 40 H28      1.9695    25.4188    29.9403 H     1 STI4   0.1500 
 41 C29      1.7069    24.6358    31.9047 C.ar  1 STI4  -0.1500 
 42 H29      2.7601    24.6570    32.1430 H     1 STI4   0.1500 
 43 C46     -0.5754    25.4875    29.0306 C.3   1 STI4   0.2535 
 44 H461    -0.4272    26.5648    28.9568 H     1 STI4   0.0800 
 45 H462    -1.6392    25.2613    28.9588 H     1 STI4   0.0800 
 46 N48      0.1257    24.8339    27.8917 N.3   1 STI4  -0.8100 
 47 C53      0.0225    23.3617    27.9474 C.3   1 STI4   0.1100 
 48 H531    -0.9942    23.0472    27.7120 H     1 STI4   0.0800 
 49 H532     0.2928    23.0035    28.9407 H     1 STI4   0.0800 
 50 C52      0.9857    22.8198    26.9192 C.3   1 STI4   0.3430 
 51 H521     0.9635    21.7300    26.9279 H     1 STI4   0.0800 
 52 H522     1.9961    23.1644    27.1392 H     1 STI4   0.0800 
 53 N51      0.5595    23.3218    25.5945 N.4   1 STI4  -0.9590 
 54 H51     -0.4079    23.0576    25.4739 H     1 STI4   0.4500 
 55 C54      1.3523    22.6888    24.5117 C.3   1 STI4   0.2630 
 56 H541     1.2999    21.6045    24.6093 H     1 STI4   0.0800 
 57 H542     2.3911    23.0105    24.5864 H     1 STI4   0.0800 
 58 H543     0.9485    22.9865    23.5441 H     1 STI4   0.0800 
 59 C50      0.5990    24.8014    25.5058 C.3   1 STI4   0.3430 
 60 H501     0.2544    25.1218    24.5226 H     1 STI4   0.0800 
 61 H502     1.6178    25.1540    25.6663 H     1 STI4   0.0800 
 62 C49     -0.3130    25.3620    26.5771 C.3   1 STI4   0.1100 
 63 H491    -0.2522    26.4503    26.5792 H     1 STI4   0.0800 
 64 H492    -1.3408    25.0559    26.3822 H     1 STI4   0.0800 
 65 O29      0.5098    23.0575    34.8547 O.2   1 STI4  -0.5700 
 66 C20      4.9053    23.9013    39.5247 C.3   1 STI4  -0.0965 
 67 H201     4.2045    23.5060    40.2601 H     1 STI4   0.0800 
 68 H202     5.2040    24.9093    39.8126 H     1 STI4   0.0800 
 69 H203     5.7856    23.2602    39.4804 H     1 STI4   0.0800 
@<TRIPOS>BOND
  1   1   2  1   
  2   1   3  ar  
  3   1   9  ar  
  4   3   4  1   
  5   3   5  ar  
  6   5   6  ar  
  7   5  11  1   
  8   6   7  1   
  9   6   8  ar  
 10   8   9  ar  
 11   9  10  1   
 12  11  12  ar  
 13  11  18  ar  
 14  12  13  1   
 15  12  14  ar  
 16  14  15  1   
 17  14  16  ar  
 18  16  17  ar  
 19  17  18  ar  
 20  17  19  1   
 21  19  20  1   
 22  19  21  1   
 23  21  22  ar  
 24  21  28  ar  
 25  22  23  ar  
 26  22  66  1   
 27  23  24  1   
 28  23  25  ar  
 29  25  26  1   
 30  25  27  ar  
 31  27  28  ar  
 32  27  30  1   
 33  28  29  1   
 34  30  31  1   
 35  30  32  am  
 36  32  33  1   
 37  32  65  2   
 38  33  34  ar  
 39  33  41  ar  
 40  34  35  1   
 41  34  36  ar  
 42  36  37  1   
 43  36  38  ar  
 44  38  39  ar  
 45  38  43  1   
 46  39  40  1   
 47  39  41  ar  
 48  41  42  1   
 49  43  44  1   
 50  43  45  1   
 51  43  46  1   
 52  46  47  1   
 53  46  62  1   
 54  47  48  1   
 55  47  49  1   
 56  47  50  1   
 57  50  51  1   
 58  50  52  1   
 59  50  53  1   
 60  53  54  1   
 61  53  55  1   
 62  53  59  1   
 63  55  56  1   
 64  55  57  1   
 65  55  58  1   
 66  59  60  1   
 67  59  61  1   
 68  59  62  1   
 69  62  63  1   
 70  62  64  1   
 71  66  67  1   
 72  66  68  1   
 73  66  69  1   
@<TRIPOS>SUBSTRUCTURE
  1 STI4  65 GROUP 4 B **** 0

# MOE 2012.10 (io_trps.svl 2012.10)
