@<TRIPOS>MOLECULE
3pyy.B
288 192 96 0 0 
SMALL
USER_CHARGES


@<TRIPOS>ATOM
  1 O       -0.5946    26.0752    22.1723 O.3    1 HOH  -0.8340 
  2 H1      -0.0368    26.8517    22.1253 H      1 HOH   0.4170 
  3 H2      -0.4085    25.5968    21.3644 H      1 HOH   0.4170 
  4 O       -8.3606    24.1910    47.6230 O.3    2 HOH   0.0000 
  5 H1      -7.4006    24.1910    47.6230 H      2 HOH   0.0000 
  6 H2      -8.6509    24.8380    48.2700 H      2 HOH   0.0000 
  7 O       -8.2734     6.9401    22.1449 O.3    3 HOH   0.0000 
  8 H1      -7.3134     6.9401    22.1449 H      3 HOH   0.0000 
  9 H2      -8.5637     7.5871    22.7920 H      3 HOH   0.0000 
 10 O       -4.8971    16.6068    24.8461 O.3    4 HOH   0.0000 
 11 H1      -3.9371    16.6068    24.8461 H      4 HOH   0.0000 
 12 H2      -5.1874    17.2539    25.4931 H      4 HOH   0.0000 
 13 O      -14.3801     5.8180    13.0190 O.3    5 HOH  -0.8340 
 14 H1     -14.5866     5.8381    12.0845 H      5 HOH   0.4170 
 15 H2     -15.2014     5.5655    13.4408 H      5 HOH   0.4170 
 16 O      -12.9655     4.7229    22.2754 O.3    6 HOH   0.0000 
 17 H1     -12.0055     4.7229    22.2754 H      6 HOH   0.0000 
 18 H2     -13.2558     5.3699    22.9224 H      6 HOH   0.0000 
 19 O      -17.6943     0.3101    18.7568 O.3    7 HOH   0.0000 
 20 H1     -16.7343     0.3101    18.7568 H      7 HOH   0.0000 
 21 H2     -17.9846     0.9571    19.4038 H      7 HOH   0.0000 
 22 O       -6.3651    24.2465    17.3029 O.3    8 HOH   0.0000 
 23 H1      -5.4051    24.2465    17.3029 H      8 HOH   0.0000 
 24 H2      -6.6553    24.8935    17.9499 H      8 HOH   0.0000 
 25 O       -2.1693     3.6320    35.3189 O.3    9 HOH   0.0000 
 26 H1      -1.2093     3.6320    35.3189 H      9 HOH   0.0000 
 27 H2      -2.4596     4.2791    35.9660 H      9 HOH   0.0000 
 28 O      -11.8104    17.6182    10.0242 O.3   10 HOH  -0.8340 
 29 H1     -12.5798    18.1243     9.7630 H     10 HOH   0.4170 
 30 H2     -12.1621    16.9040    10.5556 H     10 HOH   0.4170 
 31 O        1.1668     1.6161    17.1828 O.3   11 HOH   0.0000 
 32 H1       2.1268     1.6161    17.1828 H     11 HOH   0.0000 
 33 H2       0.8765     2.2632    17.8299 H     11 HOH   0.0000 
 34 O       -6.7015     5.8451    33.5714 O.3   12 HOH   0.0000 
 35 H1      -5.7415     5.8451    33.5714 H     12 HOH   0.0000 
 36 H2      -6.9917     6.4921    34.2185 H     12 HOH   0.0000 
 37 O       -4.7072     9.7654    33.2833 O.3   13 HOH   0.0000 
 38 H1      -3.7472     9.7654    33.2833 H     13 HOH   0.0000 
 39 H2      -4.9975    10.4124    33.9304 H     13 HOH   0.0000 
 40 O      -16.2574    11.6975    11.8691 O.3   14 HOH   0.0000 
 41 H1     -15.2974    11.6975    11.8691 H     14 HOH   0.0000 
 42 H2     -16.5477    12.3445    12.5162 H     14 HOH   0.0000 
 43 O       -6.1051     6.5843    20.8010 O.3   15 HOH   0.0000 
 44 H1      -5.1451     6.5843    20.8010 H     15 HOH   0.0000 
 45 H2      -6.3954     7.2314    21.4480 H     15 HOH   0.0000 
 46 O      -16.3330     8.5534    13.5722 O.3   16 HOH  -0.8340 
 47 H1     -17.1024     9.0594    13.3110 H     16 HOH   0.4170 
 48 H2     -16.6847     7.8391    14.1037 H     16 HOH   0.4170 
 49 O       -2.7425     7.7546    33.1380 O.3   17 HOH   0.0000 
 50 H1      -1.7825     7.7546    33.1380 H     17 HOH   0.0000 
 51 H2      -3.0328     8.4016    33.7850 H     17 HOH   0.0000 
 52 O      -27.7559     1.6602    32.0424 O.3   18 HOH   0.0000 
 53 H1     -26.7959     1.6602    32.0424 H     18 HOH   0.0000 
 54 H2     -28.0461     2.3073    32.6894 H     18 HOH   0.0000 
 55 O      -24.0871    21.6812    23.8872 O.3   19 HOH   0.0000 
 56 H1     -23.1271    21.6812    23.8872 H     19 HOH   0.0000 
 57 H2     -24.3774    22.3282    24.5342 H     19 HOH   0.0000 
 58 O      -11.9491    -3.8851    26.0301 O.3   20 HOH   0.0000 
 59 H1     -10.9891    -3.8851    26.0301 H     20 HOH   0.0000 
 60 H2     -12.2394    -3.2380    26.6772 H     20 HOH   0.0000 
 61 O      -30.6813     2.4121    25.3608 O.3   21 HOH   0.0000 
 62 H1     -29.7213     2.4121    25.3608 H     21 HOH   0.0000 
 63 H2     -30.9716     3.0591    26.0078 H     21 HOH   0.0000 
 64 O       -1.5689     5.0246    26.5616 O.3   22 HOH   0.0000 
 65 H1      -0.6089     5.0246    26.5616 H     22 HOH   0.0000 
 66 H2      -1.8592     5.6717    27.2086 H     22 HOH   0.0000 
 67 O      -14.9574    -0.8954    26.4268 O.3   23 HOH   0.0000 
 68 H1     -13.9974    -0.8954    26.4268 H     23 HOH   0.0000 
 69 H2     -15.2477    -0.2483    27.0739 H     23 HOH   0.0000 
 70 O       -2.0280    12.1536    44.4589 O.3   24 HOH   0.0000 
 71 H1      -1.0680    12.1536    44.4589 H     24 HOH   0.0000 
 72 H2      -2.3183    12.8007    45.1059 H     24 HOH   0.0000 
 73 O      -21.9499     0.9376    24.3801 O.3   25 HOH   0.0000 
 74 H1     -20.9899     0.9376    24.3801 H     25 HOH   0.0000 
 75 H2     -22.2401     1.5846    25.0272 H     25 HOH   0.0000 
 76 O       -5.3065    30.2177    36.3709 O.3   26 HOH   0.0000 
 77 H1      -4.3465    30.2177    36.3709 H     26 HOH   0.0000 
 78 H2      -5.5967    30.8648    37.0180 H     26 HOH   0.0000 
 79 O      -12.1850    17.8216    47.4872 O.3   27 HOH   0.0000 
 80 H1     -11.2250    17.8216    47.4872 H     27 HOH   0.0000 
 81 H2     -12.4753    18.4686    48.1343 H     27 HOH   0.0000 
 82 O      -22.9273    26.2453    21.3600 O.3   28 HOH   0.0000 
 83 H1     -21.9673    26.2453    21.3600 H     28 HOH   0.0000 
 84 H2     -23.2176    26.8923    22.0070 H     28 HOH   0.0000 
 85 O       -5.8650    17.4138    15.4061 O.3   29 HOH  -0.8340 
 86 H1      -4.9827    17.0785    15.5651 H     29 HOH   0.4170 
 87 H2      -6.4367    16.6577    15.5388 H     29 HOH   0.4170 
 88 O       -4.0920    17.4025    21.5566 O.3   30 HOH   0.0000 
 89 H1      -3.1320    17.4025    21.5566 H     30 HOH   0.0000 
 90 H2      -4.3822    18.0495    22.2036 H     30 HOH   0.0000 
 91 O       -4.9166    12.5131    44.6534 O.3   31 HOH   0.0000 
 92 H1      -3.9566    12.5131    44.6534 H     31 HOH   0.0000 
 93 H2      -5.2069    13.1602    45.3004 H     31 HOH   0.0000 
 94 O       -2.0718     1.8202    17.6423 O.3   32 HOH   0.0000 
 95 H1      -1.1118     1.8202    17.6423 H     32 HOH   0.0000 
 96 H2      -2.3621     2.4672    18.2893 H     32 HOH   0.0000 
 97 O      -22.5519    11.0934    19.8238 O.3   33 HOH  -0.8340 
 98 H1     -21.8208    11.2793    19.2345 H     33 HOH   0.4170 
 99 H2     -22.9866    11.9382    19.9406 H     33 HOH   0.4170 
100 O       -1.7072    27.0907    19.8900 O.3   34 HOH   0.0000 
101 H1      -0.7472    27.0907    19.8900 H     34 HOH   0.0000 
102 H2      -1.9975    27.7377    20.5370 H     34 HOH   0.0000 
103 O      -18.7793     2.1190    16.9709 O.3   35 HOH  -0.8340 
104 H1     -19.1989     2.2220    16.1167 H     35 HOH   0.4170 
105 H2     -17.8729     1.8890    16.7668 H     35 HOH   0.4170 
106 O       -3.0168    -0.0383    14.8842 O.3   36 HOH   0.0000 
107 H1      -2.0568    -0.0383    14.8842 H     36 HOH   0.0000 
108 H2      -3.3071     0.6088    15.5312 H     36 HOH   0.0000 
109 O      -15.9298     0.7702    28.2913 O.3   37 HOH   0.0000 
110 H1     -14.9698     0.7702    28.2913 H     37 HOH   0.0000 
111 H2     -16.2201     1.4172    28.9384 H     37 HOH   0.0000 
112 O      -10.4990    28.2092    41.2889 O.3   38 HOH   0.0000 
113 H1      -9.5390    28.2092    41.2889 H     38 HOH   0.0000 
114 H2     -10.7892    28.8562    41.9359 H     38 HOH   0.0000 
115 O      -12.5086    -1.3584    25.2543 O.3   39 HOH   0.0000 
116 H1     -11.5486    -1.3584    25.2543 H     39 HOH   0.0000 
117 H2     -12.7989    -0.7113    25.9014 H     39 HOH   0.0000 
118 O       -5.7482    13.3554    21.5929 O.3   40 HOH   0.0000 
119 H1      -4.7882    13.3554    21.5929 H     40 HOH   0.0000 
120 H2      -6.0384    14.0024    22.2399 H     40 HOH   0.0000 
121 O       -4.0977     5.1841    33.3310 O.3   41 HOH   0.0000 
122 H1      -3.1377     5.1841    33.3310 H     41 HOH   0.0000 
123 H2      -4.3879     5.8312    33.9781 H     41 HOH   0.0000 
124 O        4.9248    21.5737    33.8835 O.3   42 HOH  -0.8340 
125 H1       4.9602    22.4043    33.4093 H     42 HOH   0.4170 
126 H2       4.0616    21.2157    33.6764 H     42 HOH   0.4170 
127 O        1.1808    19.0844    26.7987 O.3   43 HOH  -0.8340 
128 H1       0.4110    19.5670    26.4975 H     43 HOH   0.4170 
129 H2       1.0260    18.9443    27.7328 H     43 HOH   0.4170 
130 O       -3.2332    12.7750    26.9040 O.3   44 HOH   0.0000 
131 H1      -2.2732    12.7750    26.9040 H     44 HOH   0.0000 
132 H2      -3.5235    13.4220    27.5510 H     44 HOH   0.0000 
133 O      -25.3914    24.4744    24.1108 O.3   45 HOH   0.0000 
134 H1     -24.4314    24.4744    24.1108 H     45 HOH   0.0000 
135 H2     -25.6817    25.1214    24.7579 H     45 HOH   0.0000 
136 O      -18.2409     2.8013    35.4278 O.3   46 HOH  -0.8340 
137 H1     -19.1684     2.7164    35.6487 H     46 HOH   0.4170 
138 H2     -18.0714     3.7427    35.4613 H     46 HOH   0.4170 
139 O        0.7566    -6.1419    17.9846 O.3   47 HOH   0.0000 
140 H1       1.7166    -6.1419    17.9846 H     47 HOH   0.0000 
141 H2       0.4663    -5.4948    18.6317 H     47 HOH   0.0000 
142 O      -31.3572    26.8613    32.9813 O.3   48 HOH   0.0000 
143 H1     -30.3972    26.8613    32.9813 H     48 HOH   0.0000 
144 H2     -31.6475    27.5083    33.6284 H     48 HOH   0.0000 
145 O       -3.8664    14.9113    22.8139 O.3   49 HOH   0.0000 
146 H1      -2.9064    14.9113    22.8139 H     49 HOH   0.0000 
147 H2      -4.1567    15.5583    23.4609 H     49 HOH   0.0000 
148 O       -2.3540    -8.7964    16.0945 O.3   50 HOH   0.0000 
149 H1      -1.3940    -8.7964    16.0945 H     50 HOH   0.0000 
150 H2      -2.6442    -8.1494    16.7416 H     50 HOH   0.0000 
151 O        8.7586    36.0078    50.5068 O.3   51 HOH   0.0000 
152 H1       9.7186    36.0078    50.5068 H     51 HOH   0.0000 
153 H2       8.4684    36.6548    51.1539 H     51 HOH   0.0000 
154 O      -14.6694    25.4712    40.2248 O.3   52 HOH   0.0000 
155 H1     -13.7094    25.4712    40.2248 H     52 HOH   0.0000 
156 H2     -14.9597    26.1183    40.8718 H     52 HOH   0.0000 
157 O      -20.0134    28.5800    26.8723 O.3   53 HOH   0.0000 
158 H1     -19.0534    28.5800    26.8723 H     53 HOH   0.0000 
159 H2     -20.3037    29.2271    27.5194 H     53 HOH   0.0000 
160 O       -7.1718    29.4963    39.1280 O.3   54 HOH   0.0000 
161 H1      -6.2118    29.4963    39.1280 H     54 HOH   0.0000 
162 H2      -7.4621    30.1434    39.7750 H     54 HOH   0.0000 
163 O      -21.4228    28.8250    21.7960 O.3   55 HOH   0.0000 
164 H1     -20.4628    28.8250    21.7960 H     55 HOH   0.0000 
165 H2     -21.7131    29.4721    22.4430 H     55 HOH   0.0000 
166 O      -14.6647    28.8255    29.9411 O.3   56 HOH   0.0000 
167 H1     -13.7047    28.8255    29.9411 H     56 HOH   0.0000 
168 H2     -14.9550    29.4726    30.5881 H     56 HOH   0.0000 
169 O      -13.1634    23.3807    18.9204 O.3   57 HOH   0.0000 
170 H1     -12.2034    23.3807    18.9204 H     57 HOH   0.0000 
171 H2     -13.4537    24.0278    19.5674 H     57 HOH   0.0000 
172 O      -15.6395    23.4414    44.3324 O.3   58 HOH   0.0000 
173 H1     -14.6795    23.4414    44.3324 H     58 HOH   0.0000 
174 H2     -15.9298    24.0885    44.9795 H     58 HOH   0.0000 
175 O      -28.5078    20.1368    44.7915 O.3   59 HOH   0.0000 
176 H1     -27.5478    20.1368    44.7915 H     59 HOH   0.0000 
177 H2     -28.7980    20.7839    45.4385 H     59 HOH   0.0000 
178 O      -15.8165    -3.2198    27.5770 O.3   60 HOH   0.0000 
179 H1     -14.8565    -3.2198    27.5770 H     60 HOH   0.0000 
180 H2     -16.1067    -2.5727    28.2240 H     60 HOH   0.0000 
181 O      -20.9587     7.7346    40.4700 O.3   61 HOH  -0.8340 
182 H1     -21.4295     7.0310    40.9167 H     61 HOH   0.4170 
183 H2     -20.1255     7.7999    40.9366 H     61 HOH   0.4170 
184 O      -16.4557    22.8629    16.0128 O.3   62 HOH   0.0000 
185 H1     -15.4957    22.8629    16.0128 H     62 HOH   0.0000 
186 H2     -16.7459    23.5099    16.6598 H     62 HOH   0.0000 
187 O      -23.8117     8.0314    42.5238 O.3   63 HOH  -0.8340 
188 H1     -24.2674     7.4901    41.8791 H     63 HOH   0.4170 
189 H2     -23.9053     7.5534    43.3477 H     63 HOH   0.4170 
190 O      -14.2705    16.8459     7.8833 O.3   64 HOH   0.0000 
191 H1     -13.3105    16.8459     7.8833 H     64 HOH   0.0000 
192 H2     -14.5607    17.4929     8.5303 H     64 HOH   0.0000 
193 O        1.2247     7.7570     9.1641 O.3   65 HOH   0.0000 
194 H1       2.1847     7.7570     9.1641 H     65 HOH   0.0000 
195 H2       0.9345     8.4041     9.8111 H     65 HOH   0.0000 
196 O      -25.1297     0.5593    33.1024 O.3   66 HOH   0.0000 
197 H1     -24.1697     0.5593    33.1024 H     66 HOH   0.0000 
198 H2     -25.4199     1.2063    33.7495 H     66 HOH   0.0000 
199 O      -14.1636    28.4646    23.4420 O.3   67 HOH   0.0000 
200 H1     -13.2036    28.4646    23.4420 H     67 HOH   0.0000 
201 H2     -14.4538    29.1117    24.0890 H     67 HOH   0.0000 
202 O      -18.6735    20.0393    15.3888 O.3   68 HOH   0.0000 
203 H1     -17.7135    20.0393    15.3888 H     68 HOH   0.0000 
204 H2     -18.9638    20.6864    16.0358 H     68 HOH   0.0000 
205 O       -8.9646    27.2594    19.5698 O.3   69 HOH   0.0000 
206 H1      -8.0046    27.2594    19.5698 H     69 HOH   0.0000 
207 H2      -9.2548    27.9064    20.2168 H     69 HOH   0.0000 
208 O       -7.8103    -0.3225    35.0831 O.3   70 HOH   0.0000 
209 H1      -6.8503    -0.3225    35.0831 H     70 HOH   0.0000 
210 H2      -8.1006     0.3246    35.7302 H     70 HOH   0.0000 
211 O       -6.1052    23.4092    47.2921 O.3   71 HOH   0.0000 
212 H1      -5.1452    23.4092    47.2921 H     71 HOH   0.0000 
213 H2      -6.3954    24.0562    47.9391 H     71 HOH   0.0000 
214 O      -39.4452    19.3549    45.7657 O.3   72 HOH   0.0000 
215 H1     -38.4852    19.3549    45.7657 H     72 HOH   0.0000 
216 H2     -39.7355    20.0019    46.4128 H     72 HOH   0.0000 
217 O      -11.5051    15.5496     8.3266 O.3   73 HOH  -0.8340 
218 H1     -12.2396    15.0709     8.7108 H     73 HOH   0.4170 
219 H2     -11.4657    16.3672     8.8228 H     73 HOH   0.4170 
220 O        4.9124    20.8356    36.3953 O.3   74 HOH  -0.8340 
221 H1       4.2007    21.2780    36.8579 H     74 HOH   0.4170 
222 H2       4.9648    21.2834    35.5510 H     74 HOH   0.4170 
223 O      -17.8245    -0.3515    32.9176 O.3   75 HOH   0.0000 
224 H1     -16.8645    -0.3515    32.9176 H     75 HOH   0.0000 
225 H2     -18.1148     0.2956    33.5647 H     75 HOH   0.0000 
226 O      -18.9865    -5.4707    28.9640 O.3   76 HOH   0.0000 
227 H1     -18.0265    -5.4707    28.9640 H     76 HOH   0.0000 
228 H2     -19.2768    -4.8237    29.6110 H     76 HOH   0.0000 
229 O      -18.9585    26.2320    19.1815 O.3   77 HOH   0.0000 
230 H1     -17.9985    26.2320    19.1815 H     77 HOH   0.0000 
231 H2     -19.2487    26.8791    19.8286 H     77 HOH   0.0000 
232 O       -6.2746    18.9052    13.1269 O.3   78 HOH  -0.8340 
233 H1      -7.2245    18.9188    13.0096 H     78 HOH   0.4170 
234 H2      -6.1388    18.3959    13.9259 H     78 HOH   0.4170 
235 O       -8.7471    11.6218    12.0019 O.3   79 HOH  -0.8340 
236 H1      -9.6484    11.3422    12.1620 H     79 HOH   0.4170 
237 H2      -8.5087    12.1219    12.7824 H     79 HOH   0.4170 
238 O      -16.0168     9.5264     9.8093 O.3   80 HOH   0.0000 
239 H1     -15.0568     9.5264     9.8093 H     80 HOH   0.0000 
240 H2     -16.3071    10.1734    10.4563 H     80 HOH   0.0000 
241 O       -0.7489    27.5576    47.3002 O.3   81 HOH   0.0000 
242 H1       0.2111    27.5576    47.3002 H     81 HOH   0.0000 
243 H2      -1.0392    28.2046    47.9473 H     81 HOH   0.0000 
244 O       -8.6643    20.4595    13.5506 O.3   82 HOH  -0.8340 
245 H1      -7.8310    20.9242    13.6268 H     82 HOH   0.4170 
246 H2      -9.1563    20.7198    14.3294 H     82 HOH   0.4170 
247 O       -5.9323     9.8427    10.9237 O.3   83 HOH  -0.8340 
248 H1      -6.6127    10.4431    11.2282 H     83 HOH   0.4170 
249 H2      -5.8490     9.1981    11.6265 H     83 HOH   0.4170 
250 O      -14.7988     2.7843     9.8512 O.3   84 HOH   0.0000 
251 H1     -13.8388     2.7843     9.8512 H     84 HOH   0.0000 
252 H2     -15.0891     3.4314    10.4982 H     84 HOH   0.0000 
253 O      -12.7236     4.7921    44.0975 O.3   85 HOH   0.0000 
254 H1     -11.7636     4.7921    44.0975 H     85 HOH   0.0000 
255 H2     -13.0139     5.4391    44.7446 H     85 HOH   0.0000 
256 O       -5.6168    -3.0704    30.1759 O.3   86 HOH   0.0000 
257 H1      -4.6568    -3.0704    30.1759 H     86 HOH   0.0000 
258 H2      -5.9071    -2.4234    30.8229 H     86 HOH   0.0000 
259 O       -8.8202    -1.0152    32.7171 O.3   87 HOH   0.0000 
260 H1      -7.8602    -1.0152    32.7171 H     87 HOH   0.0000 
261 H2      -9.1105    -0.3681    33.3642 H     87 HOH   0.0000 
262 O      -39.6029    16.8482    46.6511 O.3   88 HOH   0.0000 
263 H1     -38.6429    16.8482    46.6511 H     88 HOH   0.0000 
264 H2     -39.8932    17.4953    47.2981 H     88 HOH   0.0000 
265 O      -32.0110     8.1234    27.0118 O.3   89 HOH   0.0000 
266 H1     -31.0510     8.1234    27.0118 H     89 HOH   0.0000 
267 H2     -32.3013     8.7704    27.6589 H     89 HOH   0.0000 
268 O       -6.4828    26.1329    19.9459 O.3   90 HOH   0.0000 
269 H1      -5.5228    26.1329    19.9459 H     90 HOH   0.0000 
270 H2      -6.7731    26.7799    20.5929 H     90 HOH   0.0000 
271 O      -16.6854    -0.6139    30.5704 O.3   91 HOH   0.0000 
272 H1     -15.7254    -0.6139    30.5704 H     91 HOH   0.0000 
273 H2     -16.9757     0.0332    31.2175 H     91 HOH   0.0000 
274 O       -8.8894    22.4915    15.4134 O.3   92 HOH   0.0000 
275 H1      -7.9294    22.4915    15.4134 H     92 HOH   0.0000 
276 H2      -9.1796    23.1386    16.0604 H     92 HOH   0.0000 
277 O       -0.0723    14.2258    44.1681 O.3   93 HOH  -0.8340 
278 H1       0.5841    13.7097    43.7002 H     93 HOH   0.4170 
279 H2       0.0639    14.0081    45.0902 H     93 HOH   0.4170 
280 O      -21.7519    10.8244    17.4424 O.3   94 HOH  -0.8340 
281 H1     -22.5213    11.3305    17.1811 H     94 HOH   0.4170 
282 H2     -22.1036    10.1102    17.9738 H     94 HOH   0.4170 
283 O      -12.7977    22.2836    13.0766 O.3   95 HOH   0.0000 
284 H1     -11.8377    22.2836    13.0766 H     95 HOH   0.0000 
285 H2     -13.0880    22.9306    13.7237 H     95 HOH   0.0000 
286 O      -10.5398     2.5852    40.2550 O.3   96 HOH   0.0000 
287 H1      -9.5798     2.5852    40.2550 H     96 HOH   0.0000 
288 H2     -10.8301     3.2323    40.9020 H     96 HOH   0.0000 
@<TRIPOS>BOND
  1   1   2  1   
  2   1   3  1   
  3   4   5  1   
  4   4   6  1   
  5   7   8  1   
  6   7   9  1   
  7  10  11  1   
  8  10  12  1   
  9  13  14  1   
 10  13  15  1   
 11  16  17  1   
 12  16  18  1   
 13  19  20  1   
 14  19  21  1   
 15  22  23  1   
 16  22  24  1   
 17  25  26  1   
 18  25  27  1   
 19  28  29  1   
 20  28  30  1   
 21  31  32  1   
 22  31  33  1   
 23  34  35  1   
 24  34  36  1   
 25  37  38  1   
 26  37  39  1   
 27  40  41  1   
 28  40  42  1   
 29  43  44  1   
 30  43  45  1   
 31  46  47  1   
 32  46  48  1   
 33  49  50  1   
 34  49  51  1   
 35  52  53  1   
 36  52  54  1   
 37  55  56  1   
 38  55  57  1   
 39  58  59  1   
 40  58  60  1   
 41  61  62  1   
 42  61  63  1   
 43  64  65  1   
 44  64  66  1   
 45  67  68  1   
 46  67  69  1   
 47  70  71  1   
 48  70  72  1   
 49  73  74  1   
 50  73  75  1   
 51  76  77  1   
 52  76  78  1   
 53  79  80  1   
 54  79  81  1   
 55  82  83  1   
 56  82  84  1   
 57  85  86  1   
 58  85  87  1   
 59  88  89  1   
 60  88  90  1   
 61  91  92  1   
 62  91  93  1   
 63  94  95  1   
 64  94  96  1   
 65  97  98  1   
 66  97  99  1   
 67 100 101  1   
 68 100 102  1   
 69 103 104  1   
 70 103 105  1   
 71 106 107  1   
 72 106 108  1   
 73 109 110  1   
 74 109 111  1   
 75 112 113  1   
 76 112 114  1   
 77 115 116  1   
 78 115 117  1   
 79 118 119  1   
 80 118 120  1   
 81 121 122  1   
 82 121 123  1   
 83 124 125  1   
 84 124 126  1   
 85 127 128  1   
 86 127 129  1   
 87 130 131  1   
 88 130 132  1   
 89 133 134  1   
 90 133 135  1   
 91 136 137  1   
 92 136 138  1   
 93 139 140  1   
 94 139 141  1   
 95 142 143  1   
 96 142 144  1   
 97 145 146  1   
 98 145 147  1   
 99 148 149  1   
100 148 150  1   
101 151 152  1   
102 151 153  1   
103 154 155  1   
104 154 156  1   
105 157 158  1   
106 157 159  1   
107 160 161  1   
108 160 162  1   
109 163 164  1   
110 163 165  1   
111 166 167  1   
112 166 168  1   
113 169 170  1   
114 169 171  1   
115 172 173  1   
116 172 174  1   
117 175 176  1   
118 175 177  1   
119 178 179  1   
120 178 180  1   
121 181 182  1   
122 181 183  1   
123 184 185  1   
124 184 186  1   
125 187 188  1   
126 187 189  1   
127 190 191  1   
128 190 192  1   
129 193 194  1   
130 193 195  1   
131 196 197  1   
132 196 198  1   
133 199 200  1   
134 199 201  1   
135 202 203  1   
136 202 204  1   
137 205 206  1   
138 205 207  1   
139 208 209  1   
140 208 210  1   
141 211 212  1   
142 211 213  1   
143 214 215  1   
144 214 216  1   
145 217 218  1   
146 217 219  1   
147 220 221  1   
148 220 222  1   
149 223 224  1   
150 223 225  1   
151 226 227  1   
152 226 228  1   
153 229 230  1   
154 229 231  1   
155 232 233  1   
156 232 234  1   
157 235 236  1   
158 235 237  1   
159 238 239  1   
160 238 240  1   
161 241 242  1   
162 241 243  1   
163 244 245  1   
164 244 246  1   
165 247 248  1   
166 247 249  1   
167 250 251  1   
168 250 252  1   
169 253 254  1   
170 253 255  1   
171 256 257  1   
172 256 258  1   
173 259 260  1   
174 259 261  1   
175 262 263  1   
176 262 264  1   
177 265 266  1   
178 265 267  1   
179 268 269  1   
180 268 270  1   
181 271 272  1   
182 271 273  1   
183 274 275  1   
184 274 276  1   
185 277 278  1   
186 277 279  1   
187 280 281  1   
188 280 282  1   
189 283 284  1   
190 283 285  1   
191 286 287  1   
192 286 288  1   
@<TRIPOS>SUBSTRUCTURE
  1 HOH   1 GROUP 4 B **** 0
  2 HOH   4 GROUP 4 B **** 0
  3 HOH   7 GROUP 4 B **** 0
  4 HOH  10 GROUP 4 B **** 0
  5 HOH  13 GROUP 4 B **** 0
  6 HOH  16 GROUP 4 B **** 0
  7 HOH  19 GROUP 4 B **** 0
  8 HOH  22 GROUP 4 B **** 0
  9 HOH  25 GROUP 4 B **** 0
 10 HOH  28 GROUP 4 B **** 0
 11 HOH  31 GROUP 4 B **** 0
 12 HOH  34 GROUP 4 B **** 0
 13 HOH  37 GROUP 4 B **** 0
 14 HOH  40 GROUP 4 B **** 0
 15 HOH  43 GROUP 4 B **** 0
 16 HOH  46 GROUP 4 B **** 0
 17 HOH  49 GROUP 4 B **** 0
 18 HOH  52 GROUP 4 B **** 0
 19 HOH  55 GROUP 4 B **** 0
 20 HOH  58 GROUP 4 B **** 0
 21 HOH  61 GROUP 4 B **** 0
 22 HOH  64 GROUP 4 B **** 0
 23 HOH  67 GROUP 4 B **** 0
 24 HOH  70 GROUP 4 B **** 0
 25 HOH  73 GROUP 4 B **** 0
 26 HOH  76 GROUP 4 B **** 0
 27 HOH  79 GROUP 4 B **** 0
 28 HOH  82 GROUP 4 B **** 0
 29 HOH  85 GROUP 4 B **** 0
 30 HOH  88 GROUP 4 B **** 0
 31 HOH  91 GROUP 4 B **** 0
 32 HOH  94 GROUP 4 B **** 0
 33 HOH  97 GROUP 4 B **** 0
 34 HOH 100 GROUP 4 B **** 0
 35 HOH 103 GROUP 4 B **** 0
 36 HOH 106 GROUP 4 B **** 0
 37 HOH 109 GROUP 4 B **** 0
 38 HOH 112 GROUP 4 B **** 0
 39 HOH 115 GROUP 4 B **** 0
 40 HOH 118 GROUP 4 B **** 0
 41 HOH 121 GROUP 4 B **** 0
 42 HOH 124 GROUP 4 B **** 0
 43 HOH 127 GROUP 4 B **** 0
 44 HOH 130 GROUP 4 B **** 0
 45 HOH 133 GROUP 4 B **** 0
 46 HOH 136 GROUP 4 B **** 0
 47 HOH 139 GROUP 4 B **** 0
 48 HOH 142 GROUP 4 B **** 0
 49 HOH 145 GROUP 4 B **** 0
 50 HOH 148 GROUP 4 B **** 0
 51 HOH 151 GROUP 4 B **** 0
 52 HOH 154 GROUP 4 B **** 0
 53 HOH 157 GROUP 4 B **** 0
 54 HOH 160 GROUP 4 B **** 0
 55 HOH 163 GROUP 4 B **** 0
 56 HOH 166 GROUP 4 B **** 0
 57 HOH 169 GROUP 4 B **** 0
 58 HOH 172 GROUP 4 B **** 0
 59 HOH 175 GROUP 4 B **** 0
 60 HOH 178 GROUP 4 B **** 0
 61 HOH 181 GROUP 4 B **** 0
 62 HOH 184 GROUP 4 B **** 0
 63 HOH 187 GROUP 4 B **** 0
 64 HOH 190 GROUP 4 B **** 0
 65 HOH 193 GROUP 4 B **** 0
 66 HOH 196 GROUP 4 B **** 0
 67 HOH 199 GROUP 4 B **** 0
 68 HOH 202 GROUP 4 B **** 0
 69 HOH 205 GROUP 4 B **** 0
 70 HOH 208 GROUP 4 B **** 0
 71 HOH 211 GROUP 4 B **** 0
 72 HOH 214 GROUP 4 B **** 0
 73 HOH 217 GROUP 4 B **** 0
 74 HOH 220 GROUP 4 B **** 0
 75 HOH 223 GROUP 4 B **** 0
 76 HOH 226 GROUP 4 B **** 0
 77 HOH 229 GROUP 4 B **** 0
 78 HOH 232 GROUP 4 B **** 0
 79 HOH 235 GROUP 4 B **** 0
 80 HOH 238 GROUP 4 B **** 0
 81 HOH 241 GROUP 4 B **** 0
 82 HOH 244 GROUP 4 B **** 0
 83 HOH 247 GROUP 4 B **** 0
 84 HOH 250 GROUP 4 B **** 0
 85 HOH 253 GROUP 4 B **** 0
 86 HOH 256 GROUP 4 B **** 0
 87 HOH 259 GROUP 4 B **** 0
 88 HOH 262 GROUP 4 B **** 0
 89 HOH 265 GROUP 4 B **** 0
 90 HOH 268 GROUP 4 B **** 0
 91 HOH 271 GROUP 4 B **** 0
 92 HOH 274 GROUP 4 B **** 0
 93 HOH 277 GROUP 4 B **** 0
 94 HOH 280 GROUP 4 B **** 0
 95 HOH 283 GROUP 4 B **** 0
 96 HOH 286 GROUP 4 B **** 0

# MOE 2012.10 (io_trps.svl 2012.10)
