@<TRIPOS>MOLECULE
2v7a.B
64 68 1 0 0 
SMALL
USER_CHARGES


@<TRIPOS>ATOM
  1 N1       1.8803    18.9449    40.8591 N.pl3 1 Q627   0.2942 
  2 N2       0.3445    21.4971    42.9340 N.pl3 1 Q627   0.2120 
  3 H2       0.3710    22.4899    42.7505 H     1 Q627   0.2700 
  4 C3      -0.1488    19.5301    43.8670 C.2   1 Q627   0.3518 
  5 N4      -0.3700    20.8508    43.9784 N.2   1 Q627  -0.7068 
  6 N5      -0.7152    18.6562    44.7405 N.am  1 Q627  -0.4930 
  7 H5      -1.5648    18.9256    45.2156 H     1 Q627   0.3700 
  8 C6      -0.1957    17.4671    44.9916 C.2   1 Q627   0.5438 
  9 C7      -0.8890    16.5624    45.9610 C.ar  1 Q627   0.0862 
 10 O8       0.8166    17.0883    44.4310 O.2   1 Q627  -0.5700 
 11 C9      -0.8762    15.1793    45.7739 C.ar  1 Q627  -0.1500 
 12 H9      -0.3535    14.7522    44.9308 H     1 Q627   0.1500 
 13 C10     -1.5410    14.3482    46.6795 C.ar  1 Q627  -0.1500 
 14 H10     -1.5346    13.2784    46.5318 H     1 Q627   0.1500 
 15 C11     -2.2250    16.2769    47.9551 C.ar  1 Q627  -0.1500 
 16 H11     -2.7470    16.7079    48.7966 H     1 Q627   0.1500 
 17 C12     -1.5625    17.1071    47.0490 C.ar  1 Q627  -0.1500 
 18 H12     -1.5729    18.1773    47.1937 H     1 Q627   0.1500 
 19 C13      0.9812    20.5351    42.2332 C.2   1 Q627  -0.0390 
 20 C14      0.6923    19.2584    42.8002 C.2   1 Q627  -0.0130 
 21 C15      1.3623    18.1647    42.0228 C.2   1 Q627  -0.3016 
 22 H15      1.4464    17.1106    42.2424 H     1 Q627   0.1500 
 23 C16      1.8730    20.4150    41.0409 C.2   1 Q627  -0.3136 
 24 H16      2.3725    21.1845    40.4709 H     1 Q627   0.1500 
 25 N17     -2.9041    14.0825    48.7050 N.pl3 1 Q627  -0.8382 
 26 C18     -2.8124    12.8024    48.6537 C.3   1 Q627   0.2091 
 27 H181    -1.9060    12.5344    49.1965 H     1 Q627   0.0800 
 28 H182    -2.6963    12.5418    47.6017 H     1 Q627   0.0800 
 29 C19     -3.7916    12.0200    49.1353 C.3   1 Q627   0.3430 
 30 H191    -3.3207    11.1079    49.5021 H     1 Q627   0.0800 
 31 H192    -4.4484    11.7789    48.2995 H     1 Q627   0.0800 
 32 N20     -4.6215    12.5187    50.1918 N.4   1 Q627  -0.9590 
 33 H20     -4.0982    12.5207    51.0557 H     1 Q627   0.4500 
 34 C21     -5.0316    13.8951    49.8498 C.3   1 Q627   0.3430 
 35 H211    -5.6647    14.3016    50.6385 H     1 Q627   0.0800 
 36 H212    -5.5791    13.8970    48.9073 H     1 Q627   0.0800 
 37 C22     -3.7532    14.7386    49.7159 C.3   1 Q627   0.2091 
 38 H221    -4.0043    15.7493    49.3942 H     1 Q627   0.0800 
 39 H222    -3.2314    14.7807    50.6720 H     1 Q627   0.0800 
 40 C23     -5.7947    11.6546    50.4166 C.3   1 Q627   0.2630 
 41 H231    -5.4614    10.6473    50.6667 H     1 Q627   0.0800 
 42 H232    -6.4011    11.6224    49.5115 H     1 Q627   0.0800 
 43 H233    -6.3889    12.0551    51.2380 H     1 Q627   0.0800 
 44 C24     -2.2159    14.8965    47.7786 C.ar  1 Q627   0.1000 
 45 C25      2.3333    18.4192    39.7100 C.2   1 Q627   0.5180 
 46 O26      2.7499    19.1222    38.7883 O.2   1 Q627  -0.5700 
 47 C27      0.9768    16.3972    39.2642 C.ar  1 Q627  -0.1435 
 48 C28      0.5258    15.2894    39.9653 C.ar  1 Q627  -0.1500 
 49 H28      1.1620    14.8229    40.7030 H     1 Q627   0.1500 
 50 C29      0.1499    16.9911    38.2943 C.ar  1 Q627  -0.1500 
 51 H29      0.4983    17.8532    37.7451 H     1 Q627   0.1500 
 52 C31     -0.7484    14.7756    39.7202 C.ar  1 Q627  -0.1500 
 53 H31     -1.0956    13.9236    40.2858 H     1 Q627   0.1500 
 54 C33     -1.1282    16.4667    38.0372 C.ar  1 Q627  -0.1500 
 55 H33     -1.7597    16.9244    37.2901 H     1 Q627   0.1500 
 56 C20      2.3398    16.9284    39.5362 C.3   1 Q627   0.4045 
 57 H20      2.7026    16.4582    40.4502 H     1 Q627   0.0800 
 58 C35     -1.5842    15.3467    38.7527 C.ar  1 Q627  -0.1500 
 59 H35     -2.5631    14.9333    38.5596 H     1 Q627   0.1500 
 60 C36      4.1357    15.6475    38.7124 C.3   1 Q627   0.0400 
 61 H361     4.7542    15.4530    37.8362 H     1 Q627   0.0800 
 62 H362     3.6249    14.7308    39.0073 H     1 Q627   0.0800 
 63 H363     4.7655    15.9923    39.5325 H     1 Q627   0.0800 
 64 O34      3.1714    16.6493    38.4004 O.3   1 Q627  -0.5600 
@<TRIPOS>BOND
  1   1  21  1   
  2   1  23  1   
  3   1  45  1   
  4   2   3  1   
  5   2   5  1   
  6   2  19  1   
  7   4   5  2   
  8   4   6  1   
  9   4  20  1   
 10   6   7  1   
 11   6   8  am  
 12   8   9  1   
 13   8  10  2   
 14   9  11  ar  
 15   9  17  ar  
 16  11  12  1   
 17  11  13  ar  
 18  13  14  1   
 19  13  44  ar  
 20  15  16  1   
 21  15  17  ar  
 22  15  44  ar  
 23  17  18  1   
 24  19  20  1   
 25  19  23  2   
 26  20  21  2   
 27  21  22  1   
 28  23  24  1   
 29  25  26  1   
 30  25  37  1   
 31  25  44  1   
 32  26  27  1   
 33  26  28  1   
 34  26  29  1   
 35  29  30  1   
 36  29  31  1   
 37  29  32  1   
 38  32  33  1   
 39  32  34  1   
 40  32  40  1   
 41  34  35  1   
 42  34  36  1   
 43  34  37  1   
 44  37  38  1   
 45  37  39  1   
 46  40  41  1   
 47  40  42  1   
 48  40  43  1   
 49  45  46  2   
 50  45  56  1   
 51  47  48  ar  
 52  47  50  ar  
 53  47  56  1   
 54  48  49  1   
 55  48  52  ar  
 56  50  51  1   
 57  50  54  ar  
 58  52  53  1   
 59  52  58  ar  
 60  54  55  1   
 61  54  58  ar  
 62  56  57  1   
 63  56  64  1   
 64  58  59  1   
 65  60  61  1   
 66  60  62  1   
 67  60  63  1   
 68  60  64  1   
@<TRIPOS>SUBSTRUCTURE
  1 Q627   8 GROUP 4 B **** 0

# MOE 2012.10 (io_trps.svl 2012.10)
