@<TRIPOS>MOLECULE
2v7a.B
186 124 62 0 0 
SMALL
USER_CHARGES


@<TRIPOS>ATOM
  1 O        7.7255    11.1542    43.0812 O.3    1 HOH   0.0000 
  2 H1       8.6855    11.1542    43.0812 H      1 HOH   0.0000 
  3 H2       7.4352    11.8013    43.7282 H      1 HOH   0.0000 
  4 O        8.5293    15.8176    37.7980 O.3    2 HOH  -0.8340 
  5 H1       9.2363    16.0765    38.3890 H      2 HOH   0.4170 
  6 H2       8.6993    16.3055    36.9922 H      2 HOH   0.4170 
  7 O        6.2742    15.5429    36.1726 O.3    3 HOH  -0.8340 
  8 H1       6.8552    15.4911    36.9315 H      3 HOH   0.4170 
  9 H2       6.8261    15.8878    35.4708 H      3 HOH   0.4170 
 10 O       10.6242    10.8111    39.1108 O.3    4 HOH   0.0000 
 11 H1      11.5842    10.8111    39.1108 H      4 HOH   0.0000 
 12 H2      10.3339    11.4581    39.7579 H      4 HOH   0.0000 
 13 O        9.4877    16.6810    39.9864 O.3    5 HOH  -0.8340 
 14 H1       9.4505    15.9959    40.6538 H      5 HOH   0.4170 
 15 H2      10.3063    17.1443    40.1634 H      5 HOH   0.4170 
 16 O        6.1312    31.3331    56.7103 O.3    6 HOH   0.0000 
 17 H1       7.0912    31.3331    56.7103 H      6 HOH   0.0000 
 18 H2       5.8409    31.9801    57.3574 H      6 HOH   0.0000 
 19 O        1.2259    29.7474    56.0488 O.3    7 HOH   0.0000 
 20 H1       2.1859    29.7474    56.0488 H      7 HOH   0.0000 
 21 H2       0.9356    30.3944    56.6959 H      7 HOH   0.0000 
 22 O        0.2781    27.9657    46.2274 O.3    8 HOH   0.0000 
 23 H1       1.2381    27.9657    46.2274 H      8 HOH   0.0000 
 24 H2      -0.0122    28.6128    46.8745 H      8 HOH   0.0000 
 25 O       -0.8333    28.7538    51.3334 O.3    9 HOH   0.0000 
 26 H1       0.1267    28.7538    51.3334 H      9 HOH   0.0000 
 27 H2      -1.1236    29.4008    51.9805 H      9 HOH   0.0000 
 28 O       17.9486    11.9342    32.7434 O.3   10 HOH   0.0000 
 29 H1      18.9086    11.9342    32.7434 H     10 HOH   0.0000 
 30 H2      17.6583    12.5813    33.3904 H     10 HOH   0.0000 
 31 O       -3.3119    26.9518    46.9441 O.3   11 HOH   0.0000 
 32 H1      -2.3519    26.9518    46.9441 H     11 HOH   0.0000 
 33 H2      -3.6022    27.5988    47.5912 H     11 HOH   0.0000 
 34 O      -26.0576    14.1327    46.0505 O.3   12 HOH   0.0000 
 35 H1     -25.0976    14.1327    46.0505 H     12 HOH   0.0000 
 36 H2     -26.3479    14.7798    46.6976 H     12 HOH   0.0000 
 37 O      -19.6298    16.2384    33.0662 O.3   13 HOH   0.0000 
 38 H1     -18.6698    16.2384    33.0662 H     13 HOH   0.0000 
 39 H2     -19.9201    16.8854    33.7133 H     13 HOH   0.0000 
 40 O      -11.4383    31.0092    28.7568 O.3   14 HOH   0.0000 
 41 H1     -10.4783    31.0092    28.7568 H     14 HOH   0.0000 
 42 H2     -11.7285    31.6563    29.4039 H     14 HOH   0.0000 
 43 O      -10.8785    29.7911    22.2467 O.3   15 HOH   0.0000 
 44 H1      -9.9185    29.7911    22.2467 H     15 HOH   0.0000 
 45 H2     -11.1688    30.4381    22.8938 H     15 HOH   0.0000 
 46 O      -22.1891    15.3469    33.3778 O.3   16 HOH   0.0000 
 47 H1     -21.2291    15.3469    33.3778 H     16 HOH   0.0000 
 48 H2     -22.4794    15.9940    34.0248 H     16 HOH   0.0000 
 49 O       -3.1770    35.5098    29.1506 O.3   17 HOH   0.0000 
 50 H1      -2.2170    35.5098    29.1506 H     17 HOH   0.0000 
 51 H2      -3.4673    36.1569    29.7976 H     17 HOH   0.0000 
 52 O      -10.4975    23.8505    17.9993 O.3   18 HOH   0.0000 
 53 H1      -9.5375    23.8505    17.9993 H     18 HOH   0.0000 
 54 H2     -10.7877    24.4975    18.6463 H     18 HOH   0.0000 
 55 O        1.5186    18.7913    28.9337 O.3   19 HOH   0.0000 
 56 H1       2.4786    18.7913    28.9337 H     19 HOH   0.0000 
 57 H2       1.2283    19.4384    29.5807 H     19 HOH   0.0000 
 58 O       -0.0599     9.8953    37.0530 O.3   20 HOH  -0.8340 
 59 H1      -0.5455    10.4518    37.6620 H     20 HOH   0.4170 
 60 H2       0.3034     9.1998    37.6011 H     20 HOH   0.4170 
 61 O        7.4791    14.7068    22.1811 O.3   21 HOH   0.0000 
 62 H1       8.4391    14.7068    22.1811 H     21 HOH   0.0000 
 63 H2       7.1888    15.3538    22.8282 H     21 HOH   0.0000 
 64 O       -0.0574    10.7744    31.1113 O.3   22 HOH   0.0000 
 65 H1       0.9026    10.7744    31.1113 H     22 HOH   0.0000 
 66 H2      -0.3477    11.4214    31.7583 H     22 HOH   0.0000 
 67 O       -3.6187    12.1473    27.7086 O.3   23 HOH   0.0000 
 68 H1      -2.6587    12.1473    27.7086 H     23 HOH   0.0000 
 69 H2      -3.9089    12.7944    28.3557 H     23 HOH   0.0000 
 70 O       -2.0857    10.9896    38.6221 O.3   24 HOH  -0.8340 
 71 H1      -2.6596    11.0834    39.3824 H     24 HOH   0.4170 
 72 H2      -2.2017    11.8036    38.1319 H     24 HOH   0.4170 
 73 O       -4.9257     7.3518    33.9915 O.3   25 HOH   0.0000 
 74 H1      -3.9657     7.3518    33.9915 H     25 HOH   0.0000 
 75 H2      -5.2159     7.9989    34.6385 H     25 HOH   0.0000 
 76 O      -13.1025    19.5666    46.6992 O.3   26 HOH   0.0000 
 77 H1     -12.1425    19.5666    46.6992 H     26 HOH   0.0000 
 78 H2     -13.3928    20.2137    47.3463 H     26 HOH   0.0000 
 79 O       -4.3973    23.3415    16.2009 O.3   27 HOH   0.0000 
 80 H1      -3.4373    23.3415    16.2009 H     27 HOH   0.0000 
 81 H2      -4.6876    23.9885    16.8479 H     27 HOH   0.0000 
 82 O        8.5473    16.5939    20.0941 O.3   28 HOH   0.0000 
 83 H1       9.5073    16.5939    20.0941 H     28 HOH   0.0000 
 84 H2       8.2570    17.2410    20.7411 H     28 HOH   0.0000 
 85 O      -18.1977     8.4657    15.2548 O.3   29 HOH   0.0000 
 86 H1     -17.2377     8.4657    15.2548 H     29 HOH   0.0000 
 87 H2     -18.4880     9.1128    15.9018 H     29 HOH   0.0000 
 88 O       -7.2110     6.3655    21.2673 O.3   30 HOH   0.0000 
 89 H1      -6.2510     6.3655    21.2673 H     30 HOH   0.0000 
 90 H2      -7.5013     7.0125    21.9144 H     30 HOH   0.0000 
 91 O       -9.2760     7.1773    22.5619 O.3   31 HOH   0.0000 
 92 H1      -8.3160     7.1773    22.5619 H     31 HOH   0.0000 
 93 H2      -9.5662     7.8244    23.2090 H     31 HOH   0.0000 
 94 O       -3.5133     3.7296    27.3524 O.3   32 HOH   0.0000 
 95 H1      -2.5533     3.7296    27.3524 H     32 HOH   0.0000 
 96 H2      -3.8036     4.3766    27.9994 H     32 HOH   0.0000 
 97 O      -17.0007    22.1636    14.0432 O.3   33 HOH   0.0000 
 98 H1     -16.0407    22.1636    14.0432 H     33 HOH   0.0000 
 99 H2     -17.2910    22.8107    14.6902 H     33 HOH   0.0000 
100 O      -13.2642    24.0172    14.5128 O.3   34 HOH   0.0000 
101 H1     -12.3042    24.0172    14.5128 H     34 HOH   0.0000 
102 H2     -13.5545    24.6642    15.1598 H     34 HOH   0.0000 
103 O       -3.0700    16.5440    21.9348 O.3   35 HOH   0.0000 
104 H1      -2.1100    16.5440    21.9348 H     35 HOH   0.0000 
105 H2      -3.3603    17.1910    22.5818 H     35 HOH   0.0000 
106 O       -4.3111    15.9925    25.2918 O.3   36 HOH   0.0000 
107 H1      -3.3511    15.9925    25.2918 H     36 HOH   0.0000 
108 H2      -4.6014    16.6395    25.9389 H     36 HOH   0.0000 
109 O      -18.7681    13.9371    32.0666 O.3   37 HOH   0.0000 
110 H1     -17.8081    13.9371    32.0666 H     37 HOH   0.0000 
111 H2     -19.0584    14.5842    32.7137 H     37 HOH   0.0000 
112 O       -6.5755     9.6793    33.6944 O.3   38 HOH   0.0000 
113 H1      -5.6155     9.6793    33.6944 H     38 HOH   0.0000 
114 H2      -6.8658    10.3263    34.3414 H     38 HOH   0.0000 
115 O       -9.4209     6.1524    34.0332 O.3   39 HOH   0.0000 
116 H1      -8.4609     6.1524    34.0332 H     39 HOH   0.0000 
117 H2      -9.7111     6.7994    34.6803 H     39 HOH   0.0000 
118 O      -14.3271     6.1026    22.5890 O.3   40 HOH   0.0000 
119 H1     -13.3671     6.1026    22.5890 H     40 HOH   0.0000 
120 H2     -14.6174     6.7496    23.2361 H     40 HOH   0.0000 
121 O       -4.0243     0.2049    18.4045 O.3   41 HOH   0.0000 
122 H1      -3.0643     0.2049    18.4045 H     41 HOH   0.0000 
123 H2      -4.3145     0.8520    19.0515 H     41 HOH   0.0000 
124 O       -5.2647    -0.9176    16.2556 O.3   42 HOH   0.0000 
125 H1      -4.3047    -0.9176    16.2556 H     42 HOH   0.0000 
126 H2      -5.5550    -0.2706    16.9026 H     42 HOH   0.0000 
127 O       -9.1194    -7.2191    11.3457 O.3   43 HOH   0.0000 
128 H1      -8.1594    -7.2191    11.3457 H     43 HOH   0.0000 
129 H2      -9.4097    -6.5720    11.9928 H     43 HOH   0.0000 
130 O      -15.1654     3.6997     9.8643 O.3   44 HOH   0.0000 
131 H1     -14.2054     3.6997     9.8643 H     44 HOH   0.0000 
132 H2     -15.4556     4.3468    10.5113 H     44 HOH   0.0000 
133 O       -8.3769     0.0785    10.1148 O.3   45 HOH   0.0000 
134 H1      -7.4169     0.0785    10.1148 H     45 HOH   0.0000 
135 H2      -8.6672     0.7255    10.7619 H     45 HOH   0.0000 
136 O      -18.5431     0.4111    13.4581 O.3   46 HOH   0.0000 
137 H1     -17.5831     0.4111    13.4581 H     46 HOH   0.0000 
138 H2     -18.8334     1.0582    14.1052 H     46 HOH   0.0000 
139 O      -14.0670     6.6168    13.0400 O.3   47 HOH   0.0000 
140 H1     -13.1070     6.6168    13.0400 H     47 HOH   0.0000 
141 H2     -14.3573     7.2638    13.6871 H     47 HOH   0.0000 
142 O      -15.5094     0.3360    25.3050 O.3   48 HOH   0.0000 
143 H1     -14.5494     0.3360    25.3050 H     48 HOH   0.0000 
144 H2     -15.7996     0.9830    25.9521 H     48 HOH   0.0000 
145 O      -29.3400     9.1720    26.3431 O.3   49 HOH   0.0000 
146 H1     -28.3800     9.1720    26.3431 H     49 HOH   0.0000 
147 H2     -29.6303     9.8190    26.9902 H     49 HOH   0.0000 
148 O      -23.9761     4.2409    24.2153 O.3   50 HOH   0.0000 
149 H1     -23.0161     4.2409    24.2153 H     50 HOH   0.0000 
150 H2     -24.2663     4.8879    24.8624 H     50 HOH   0.0000 
151 O      -21.1983     2.5167    32.4774 O.3   51 HOH   0.0000 
152 H1     -20.2383     2.5167    32.4774 H     51 HOH   0.0000 
153 H2     -21.4886     3.1638    33.1244 H     51 HOH   0.0000 
154 O      -20.6754     4.0831    20.1455 O.3   52 HOH   0.0000 
155 H1     -19.7154     4.0831    20.1455 H     52 HOH   0.0000 
156 H2     -20.9656     4.7302    20.7926 H     52 HOH   0.0000 
157 O      -18.0782     9.7330    17.3231 O.3   53 HOH   0.0000 
158 H1     -17.1182     9.7330    17.3231 H     53 HOH   0.0000 
159 H2     -18.3685    10.3801    17.9701 H     53 HOH   0.0000 
160 O       -7.7947    10.8111    12.5166 O.3   54 HOH   0.0000 
161 H1      -6.8347    10.8111    12.5166 H     54 HOH   0.0000 
162 H2      -8.0850    11.4581    13.1637 H     54 HOH   0.0000 
163 O      -16.4399    10.1262    12.9582 O.3   55 HOH   0.0000 
164 H1     -15.4799    10.1262    12.9582 H     55 HOH   0.0000 
165 H2     -16.7301    10.7732    13.6052 H     55 HOH   0.0000 
166 O       -8.7770    12.8888     8.9924 O.3   56 HOH   0.0000 
167 H1      -7.8170    12.8888     8.9924 H     56 HOH   0.0000 
168 H2      -9.0673    13.5358     9.6394 H     56 HOH   0.0000 
169 O       -9.5994    17.2883     9.5072 O.3   57 HOH   0.0000 
170 H1      -8.6394    17.2883     9.5072 H     57 HOH   0.0000 
171 H2      -9.8896    17.9354    10.1543 H     57 HOH   0.0000 
172 O      -15.2462    12.9471    10.8561 O.3   58 HOH   0.0000 
173 H1     -14.2862    12.9471    10.8561 H     58 HOH   0.0000 
174 H2     -15.5365    13.5941    11.5031 H     58 HOH   0.0000 
175 O      -15.9142    23.8297    15.2776 O.3   59 HOH   0.0000 
176 H1     -14.9542    23.8297    15.2776 H     59 HOH   0.0000 
177 H2     -16.2045    24.4767    15.9246 H     59 HOH   0.0000 
178 O      -16.2070    28.6734    33.2365 O.3   60 HOH   0.0000 
179 H1     -15.2470    28.6734    33.2365 H     60 HOH   0.0000 
180 H2     -16.4973    29.3204    33.8836 H     60 HOH   0.0000 
181 O      -28.9993    27.6357    32.2051 O.3   61 HOH   0.0000 
182 H1     -28.0393    27.6357    32.2051 H     61 HOH   0.0000 
183 H2     -29.2896    28.2827    32.8522 H     61 HOH   0.0000 
184 O        1.9931    21.0298    36.8895 O.3   62 HOH  -0.8340 
185 H1       2.7672    21.0137    36.3267 H     62 HOH   0.4170 
186 H2       2.3088    20.7260    37.7405 H     62 HOH   0.4170 
@<TRIPOS>BOND
  1   1   2  1   
  2   1   3  1   
  3   4   5  1   
  4   4   6  1   
  5   7   8  1   
  6   7   9  1   
  7  10  11  1   
  8  10  12  1   
  9  13  14  1   
 10  13  15  1   
 11  16  17  1   
 12  16  18  1   
 13  19  20  1   
 14  19  21  1   
 15  22  23  1   
 16  22  24  1   
 17  25  26  1   
 18  25  27  1   
 19  28  29  1   
 20  28  30  1   
 21  31  32  1   
 22  31  33  1   
 23  34  35  1   
 24  34  36  1   
 25  37  38  1   
 26  37  39  1   
 27  40  41  1   
 28  40  42  1   
 29  43  44  1   
 30  43  45  1   
 31  46  47  1   
 32  46  48  1   
 33  49  50  1   
 34  49  51  1   
 35  52  53  1   
 36  52  54  1   
 37  55  56  1   
 38  55  57  1   
 39  58  59  1   
 40  58  60  1   
 41  61  62  1   
 42  61  63  1   
 43  64  65  1   
 44  64  66  1   
 45  67  68  1   
 46  67  69  1   
 47  70  71  1   
 48  70  72  1   
 49  73  74  1   
 50  73  75  1   
 51  76  77  1   
 52  76  78  1   
 53  79  80  1   
 54  79  81  1   
 55  82  83  1   
 56  82  84  1   
 57  85  86  1   
 58  85  87  1   
 59  88  89  1   
 60  88  90  1   
 61  91  92  1   
 62  91  93  1   
 63  94  95  1   
 64  94  96  1   
 65  97  98  1   
 66  97  99  1   
 67 100 101  1   
 68 100 102  1   
 69 103 104  1   
 70 103 105  1   
 71 106 107  1   
 72 106 108  1   
 73 109 110  1   
 74 109 111  1   
 75 112 113  1   
 76 112 114  1   
 77 115 116  1   
 78 115 117  1   
 79 118 119  1   
 80 118 120  1   
 81 121 122  1   
 82 121 123  1   
 83 124 125  1   
 84 124 126  1   
 85 127 128  1   
 86 127 129  1   
 87 130 131  1   
 88 130 132  1   
 89 133 134  1   
 90 133 135  1   
 91 136 137  1   
 92 136 138  1   
 93 139 140  1   
 94 139 141  1   
 95 142 143  1   
 96 142 144  1   
 97 145 146  1   
 98 145 147  1   
 99 148 149  1   
100 148 150  1   
101 151 152  1   
102 151 153  1   
103 154 155  1   
104 154 156  1   
105 157 158  1   
106 157 159  1   
107 160 161  1   
108 160 162  1   
109 163 164  1   
110 163 165  1   
111 166 167  1   
112 166 168  1   
113 169 170  1   
114 169 171  1   
115 172 173  1   
116 172 174  1   
117 175 176  1   
118 175 177  1   
119 178 179  1   
120 178 180  1   
121 181 182  1   
122 181 183  1   
123 184 185  1   
124 184 186  1   
@<TRIPOS>SUBSTRUCTURE
  1 HOH   1 GROUP 4 B **** 0
  2 HOH   4 GROUP 4 B **** 0
  3 HOH   7 GROUP 4 B **** 0
  4 HOH  10 GROUP 4 B **** 0
  5 HOH  13 GROUP 4 B **** 0
  6 HOH  16 GROUP 4 B **** 0
  7 HOH  19 GROUP 4 B **** 0
  8 HOH  22 GROUP 4 B **** 0
  9 HOH  25 GROUP 4 B **** 0
 10 HOH  28 GROUP 4 B **** 0
 11 HOH  31 GROUP 4 B **** 0
 12 HOH  34 GROUP 4 B **** 0
 13 HOH  37 GROUP 4 B **** 0
 14 HOH  40 GROUP 4 B **** 0
 15 HOH  43 GROUP 4 B **** 0
 16 HOH  46 GROUP 4 B **** 0
 17 HOH  49 GROUP 4 B **** 0
 18 HOH  52 GROUP 4 B **** 0
 19 HOH  55 GROUP 4 B **** 0
 20 HOH  58 GROUP 4 B **** 0
 21 HOH  61 GROUP 4 B **** 0
 22 HOH  64 GROUP 4 B **** 0
 23 HOH  67 GROUP 4 B **** 0
 24 HOH  70 GROUP 4 B **** 0
 25 HOH  73 GROUP 4 B **** 0
 26 HOH  76 GROUP 4 B **** 0
 27 HOH  79 GROUP 4 B **** 0
 28 HOH  82 GROUP 4 B **** 0
 29 HOH  85 GROUP 4 B **** 0
 30 HOH  88 GROUP 4 B **** 0
 31 HOH  91 GROUP 4 B **** 0
 32 HOH  94 GROUP 4 B **** 0
 33 HOH  97 GROUP 4 B **** 0
 34 HOH 100 GROUP 4 B **** 0
 35 HOH 103 GROUP 4 B **** 0
 36 HOH 106 GROUP 4 B **** 0
 37 HOH 109 GROUP 4 B **** 0
 38 HOH 112 GROUP 4 B **** 0
 39 HOH 115 GROUP 4 B **** 0
 40 HOH 118 GROUP 4 B **** 0
 41 HOH 121 GROUP 4 B **** 0
 42 HOH 124 GROUP 4 B **** 0
 43 HOH 127 GROUP 4 B **** 0
 44 HOH 130 GROUP 4 B **** 0
 45 HOH 133 GROUP 4 B **** 0
 46 HOH 136 GROUP 4 B **** 0
 47 HOH 139 GROUP 4 B **** 0
 48 HOH 142 GROUP 4 B **** 0
 49 HOH 145 GROUP 4 B **** 0
 50 HOH 148 GROUP 4 B **** 0
 51 HOH 151 GROUP 4 B **** 0
 52 HOH 154 GROUP 4 B **** 0
 53 HOH 157 GROUP 4 B **** 0
 54 HOH 160 GROUP 4 B **** 0
 55 HOH 163 GROUP 4 B **** 0
 56 HOH 166 GROUP 4 B **** 0
 57 HOH 169 GROUP 4 B **** 0
 58 HOH 172 GROUP 4 B **** 0
 59 HOH 175 GROUP 4 B **** 0
 60 HOH 178 GROUP 4 B **** 0
 61 HOH 181 GROUP 4 B **** 0
 62 HOH 184 GROUP 4 B **** 0

# MOE 2012.10 (io_trps.svl 2012.10)
