@<TRIPOS>MOLECULE
6bl8.A
525 350 175 0 0 
SMALL
USER_CHARGES


@<TRIPOS>ATOM
  1 O      -10.3437    -8.5239    28.0180 O.3     1 HOH   0.0000 
  2 H1      -9.3837    -8.5239    28.0180 H       1 HOH   0.0000 
  3 H2     -10.6340    -7.8769    28.6651 H       1 HOH   0.0000 
  4 O        4.0740    11.3900    52.2954 O.3     2 HOH   0.0000 
  5 H1       5.0340    11.3900    52.2954 H       2 HOH   0.0000 
  6 H2       3.7837    12.0370    52.9425 H       2 HOH   0.0000 
  7 O      -16.5889    13.6317    48.2041 O.3     3 HOH   0.0000 
  8 H1     -15.6289    13.6317    48.2041 H       3 HOH   0.0000 
  9 H2     -16.8791    14.2788    48.8512 H       3 HOH   0.0000 
 10 O       16.2855    24.8653    28.3894 O.3     4 HOH   0.0000 
 11 H1      17.2455    24.8653    28.3894 H       4 HOH   0.0000 
 12 H2      15.9953    25.5124    29.0365 H       4 HOH   0.0000 
 13 O      -15.2316    26.2802    43.3244 O.3     5 HOH   0.0000 
 14 H1     -14.2716    26.2802    43.3244 H       5 HOH   0.0000 
 15 H2     -15.5219    26.9272    43.9714 H       5 HOH   0.0000 
 16 O       -4.2881    16.2733    14.9666 O.3     6 HOH   0.0000 
 17 H1      -3.3281    16.2733    14.9666 H       6 HOH   0.0000 
 18 H2      -4.5783    16.9204    15.6136 H       6 HOH   0.0000 
 19 O       -3.4555    25.4877    20.3500 O.3     7 HOH   0.0000 
 20 H1      -2.4955    25.4877    20.3500 H       7 HOH   0.0000 
 21 H2      -3.7457    26.1348    20.9971 H       7 HOH   0.0000 
 22 O      -17.3889     0.0050    10.6110 O.3     8 HOH   0.0000 
 23 H1     -16.4289     0.0050    10.6110 H       8 HOH   0.0000 
 24 H2     -17.6792     0.6521    11.2580 H       8 HOH   0.0000 
 25 O        1.7514    27.2513    34.7720 O.3     9 HOH   0.0000 
 26 H1       2.7114    27.2513    34.7720 H       9 HOH   0.0000 
 27 H2       1.4611    27.8983    35.4191 H       9 HOH   0.0000 
 28 O       -1.1431    14.9094    38.9087 O.3    10 HOH  -0.8340 
 29 H1      -1.8122    14.3694    38.4881 H      10 HOH   0.4170 
 30 H2      -1.4637    15.8063    38.8135 H      10 HOH   0.4170 
 31 O       -0.4764    27.2269    46.9567 O.3    11 HOH   0.0000 
 32 H1       0.4836    27.2269    46.9567 H      11 HOH   0.0000 
 33 H2      -0.7667    27.8740    47.6038 H      11 HOH   0.0000 
 34 O       -2.5399    35.2357    29.7904 O.3    12 HOH   0.0000 
 35 H1      -1.5799    35.2357    29.7904 H      12 HOH   0.0000 
 36 H2      -2.8302    35.8828    30.4374 H      12 HOH   0.0000 
 37 O      -24.7574    27.6884    24.1357 O.3    13 HOH   0.0000 
 38 H1     -23.7974    27.6884    24.1357 H      13 HOH   0.0000 
 39 H2     -25.0476    28.3355    24.7827 H      13 HOH   0.0000 
 40 O       -9.2972     6.3729    33.8468 O.3    14 HOH   0.0000 
 41 H1      -8.3372     6.3729    33.8468 H      14 HOH   0.0000 
 42 H2      -9.5875     7.0200    34.4939 H      14 HOH   0.0000 
 43 O      -18.7511    15.0459    50.9284 O.3    15 HOH   0.0000 
 44 H1     -17.7911    15.0459    50.9284 H      15 HOH   0.0000 
 45 H2     -19.0414    15.6929    51.5754 H      15 HOH   0.0000 
 46 O       -7.2461     6.0344    21.4859 O.3    16 HOH   0.0000 
 47 H1      -6.2861     6.0344    21.4859 H      16 HOH   0.0000 
 48 H2      -7.5363     6.6815    22.1330 H      16 HOH   0.0000 
 49 O      -15.0352    12.7420    10.9551 O.3    17 HOH   0.0000 
 50 H1     -14.0752    12.7420    10.9551 H      17 HOH   0.0000 
 51 H2     -15.3255    13.3891    11.6022 H      17 HOH   0.0000 
 52 O      -15.6312    -0.0234    25.5011 O.3    18 HOH   0.0000 
 53 H1     -14.6712    -0.0234    25.5011 H      18 HOH   0.0000 
 54 H2     -15.9215     0.6237    26.1482 H      18 HOH   0.0000 
 55 O       -7.4997    10.8630    12.2322 O.3    19 HOH   0.0000 
 56 H1      -6.5397    10.8630    12.2322 H      19 HOH   0.0000 
 57 H2      -7.7899    11.5101    12.8792 H      19 HOH   0.0000 
 58 O       -4.2662     3.8329     8.7623 O.3    20 HOH   0.0000 
 59 H1      -3.3062     3.8329     8.7623 H      20 HOH   0.0000 
 60 H2      -4.5564     4.4799     9.4094 H      20 HOH   0.0000 
 61 O        6.1545    31.3954    57.3821 O.3    21 HOH   0.0000 
 62 H1       7.1145    31.3954    57.3821 H      21 HOH   0.0000 
 63 H2       5.8642    32.0425    58.0292 H      21 HOH   0.0000 
 64 O       -5.0683    -1.7966    16.4943 O.3    22 HOH   0.0000 
 65 H1      -4.1083    -1.7966    16.4943 H      22 HOH   0.0000 
 66 H2      -5.3586    -1.1495    17.1414 H      22 HOH   0.0000 
 67 O       -9.9970    29.2944    22.0797 O.3    23 HOH   0.0000 
 68 H1      -9.0370    29.2944    22.0797 H      23 HOH   0.0000 
 69 H2     -10.2873    29.9414    22.7267 H      23 HOH   0.0000 
 70 O       -3.6206    31.2651    16.5853 O.3    24 HOH   0.0000 
 71 H1      -2.6606    31.2651    16.5853 H      24 HOH   0.0000 
 72 H2      -3.9109    31.9121    17.2324 H      24 HOH   0.0000 
 73 O        8.2399    10.8766    57.4883 O.3    25 HOH   0.0000 
 74 H1       9.1999    10.8766    57.4883 H      25 HOH   0.0000 
 75 H2       7.9496    11.5237    58.1354 H      25 HOH   0.0000 
 76 O      -22.7692     9.4878    34.6206 O.3    26 HOH   0.0000 
 77 H1     -21.8092     9.4878    34.6206 H      26 HOH   0.0000 
 78 H2     -23.0595    10.1349    35.2677 H      26 HOH   0.0000 
 79 O      -16.9019     6.8997    42.8902 O.3    27 HOH   0.0000 
 80 H1     -15.9419     6.8997    42.8902 H      27 HOH   0.0000 
 81 H2     -17.1922     7.5467    43.5373 H      27 HOH   0.0000 
 82 O        8.9136    18.2701    28.6896 O.3    28 HOH   0.0000 
 83 H1       9.8736    18.2701    28.6896 H      28 HOH   0.0000 
 84 H2       8.6233    18.9172    29.3367 H      28 HOH   0.0000 
 85 O       -9.7646    23.7324    17.7633 O.3    29 HOH   0.0000 
 86 H1      -8.8046    23.7324    17.7633 H      29 HOH   0.0000 
 87 H2     -10.0548    24.3795    18.4103 H      29 HOH   0.0000 
 88 O        1.9212    29.7039    35.5384 O.3    30 HOH   0.0000 
 89 H1       2.8812    29.7039    35.5384 H      30 HOH   0.0000 
 90 H2       1.6309    30.3509    36.1855 H      30 HOH   0.0000 
 91 O      -19.9120     0.9713    21.1927 O.3    31 HOH   0.0000 
 92 H1     -18.9520     0.9713    21.1927 H      31 HOH   0.0000 
 93 H2     -20.2022     1.6184    21.8398 H      31 HOH   0.0000 
 94 O      -19.7405     4.1880    16.7920 O.3    32 HOH   0.0000 
 95 H1     -18.7805     4.1880    16.7920 H      32 HOH   0.0000 
 96 H2     -20.0308     4.8350    17.4390 H      32 HOH   0.0000 
 97 O      -22.9265    19.2965    45.7232 O.3    33 HOH   0.0000 
 98 H1     -21.9665    19.2965    45.7232 H      33 HOH   0.0000 
 99 H2     -23.2167    19.9435    46.3702 H      33 HOH   0.0000 
100 O      -24.6945     7.9923    45.3668 O.3    34 HOH   0.0000 
101 H1     -23.7345     7.9923    45.3668 H      34 HOH   0.0000 
102 H2     -24.9848     8.6393    46.0139 H      34 HOH   0.0000 
103 O       -8.3258     5.5578    44.1337 O.3    35 HOH   0.0000 
104 H1      -7.3658     5.5578    44.1337 H      35 HOH   0.0000 
105 H2      -8.6161     6.2049    44.7808 H      35 HOH   0.0000 
106 O      -17.4548     9.5888    17.4757 O.3    36 HOH   0.0000 
107 H1     -16.4948     9.5888    17.4757 H      36 HOH   0.0000 
108 H2     -17.7450    10.2358    18.1227 H      36 HOH   0.0000 
109 O        0.1770    32.8594    27.3744 O.3    37 HOH   0.0000 
110 H1       1.1370    32.8594    27.3744 H      37 HOH   0.0000 
111 H2      -0.1133    33.5064    28.0215 H      37 HOH   0.0000 
112 O       -2.0843    29.8261    35.6889 O.3    38 HOH   0.0000 
113 H1      -1.1243    29.8261    35.6889 H      38 HOH   0.0000 
114 H2      -2.3746    30.4731    36.3360 H      38 HOH   0.0000 
115 O      -16.4958     6.6539    45.5552 O.3    39 HOH   0.0000 
116 H1     -15.5358     6.6539    45.5552 H      39 HOH   0.0000 
117 H2     -16.7861     7.3010    46.2022 H      39 HOH   0.0000 
118 O      -21.8530    14.1008    18.1069 O.3    40 HOH   0.0000 
119 H1     -20.8930    14.1008    18.1069 H      40 HOH   0.0000 
120 H2     -22.1432    14.7478    18.7540 H      40 HOH   0.0000 
121 O      -13.6531    30.4886    28.9610 O.3    41 HOH   0.0000 
122 H1     -12.6931    30.4886    28.9610 H      41 HOH   0.0000 
123 H2     -13.9433    31.1356    29.6081 H      41 HOH   0.0000 
124 O      -19.3370    -0.6298    27.7652 O.3    42 HOH   0.0000 
125 H1     -18.3770    -0.6298    27.7652 H      42 HOH   0.0000 
126 H2     -19.6273     0.0173    28.4123 H      42 HOH   0.0000 
127 O       20.7753    16.7017    31.5170 O.3    43 HOH   0.0000 
128 H1      21.7353    16.7017    31.5170 H      43 HOH   0.0000 
129 H2      20.4850    17.3488    32.1641 H      43 HOH   0.0000 
130 O      -14.7650     4.4595    10.4331 O.3    44 HOH   0.0000 
131 H1     -13.8050     4.4595    10.4331 H      44 HOH   0.0000 
132 H2     -15.0553     5.1066    11.0801 H      44 HOH   0.0000 
133 O       -4.9910     7.1436    34.3275 O.3    45 HOH   0.0000 
134 H1      -4.0310     7.1436    34.3275 H      45 HOH   0.0000 
135 H2      -5.2813     7.7906    34.9745 H      45 HOH   0.0000 
136 O      -21.0528    25.6081    21.4417 O.3    46 HOH   0.0000 
137 H1     -20.0928    25.6081    21.4417 H      46 HOH   0.0000 
138 H2     -21.3431    26.2551    22.0888 H      46 HOH   0.0000 
139 O        2.6152    32.8716    34.8800 O.3    47 HOH   0.0000 
140 H1       3.5752    32.8716    34.8800 H      47 HOH   0.0000 
141 H2       2.3249    33.5187    35.5270 H      47 HOH   0.0000 
142 O      -25.4637    11.7903    42.7057 O.3    48 HOH   0.0000 
143 H1     -24.5037    11.7903    42.7057 H      48 HOH   0.0000 
144 H2     -25.7540    12.4374    43.3528 H      48 HOH   0.0000 
145 O       -2.3235    16.0759    21.8237 O.3    49 HOH   0.0000 
146 H1      -1.3635    16.0759    21.8237 H      49 HOH   0.0000 
147 H2      -2.6138    16.7229    22.4708 H      49 HOH   0.0000 
148 O       11.0355    32.2318    52.2151 O.3    50 HOH   0.0000 
149 H1      11.9955    32.2318    52.2151 H      50 HOH   0.0000 
150 H2      10.7452    32.8788    52.8621 H      50 HOH   0.0000 
151 O       -4.3895    29.1257    38.6033 O.3    51 HOH   0.0000 
152 H1      -3.4295    29.1257    38.6033 H      51 HOH   0.0000 
153 H2      -4.6798    29.7727    39.2503 H      51 HOH   0.0000 
154 O      -10.8399    26.3564    46.0961 O.3    52 HOH   0.0000 
155 H1      -9.8799    26.3564    46.0961 H      52 HOH   0.0000 
156 H2     -11.1301    27.0034    46.7432 H      52 HOH   0.0000 
157 O        1.5656    22.1139    36.4456 O.3    53 HOH  -0.8340 
158 H1       1.3887    22.8376    35.8446 H      53 HOH   0.4170 
159 H2       2.5169    22.0101    36.4228 H      53 HOH   0.4170 
160 O       10.8958    21.5431    23.0085 O.3    54 HOH   0.0000 
161 H1      11.8558    21.5431    23.0085 H      54 HOH   0.0000 
162 H2      10.6056    22.1901    23.6556 H      54 HOH   0.0000 
163 O       -4.0224    15.7119    25.4084 O.3    55 HOH   0.0000 
164 H1      -3.0624    15.7119    25.4084 H      55 HOH   0.0000 
165 H2      -4.3127    16.3589    26.0555 H      55 HOH   0.0000 
166 O      -12.6468    24.0868    14.6494 O.3    56 HOH   0.0000 
167 H1     -11.6868    24.0868    14.6494 H      56 HOH   0.0000 
168 H2     -12.9371    24.7338    15.2964 H      56 HOH   0.0000 
169 O       -6.9949    29.3788    42.9187 O.3    57 HOH   0.0000 
170 H1      -6.0349    29.3788    42.9187 H      57 HOH   0.0000 
171 H2      -7.2852    30.0258    43.5657 H      57 HOH   0.0000 
172 O      -17.7808    30.7783    26.3030 O.3    58 HOH   0.0000 
173 H1     -16.8208    30.7783    26.3030 H      58 HOH   0.0000 
174 H2     -18.0711    31.4253    26.9501 H      58 HOH   0.0000 
175 O      -23.6710    13.1061    51.5445 O.3    59 HOH   0.0000 
176 H1     -22.7110    13.1061    51.5445 H      59 HOH   0.0000 
177 H2     -23.9612    13.7532    52.1916 H      59 HOH   0.0000 
178 O       -9.3252     7.1354    22.7501 O.3    60 HOH   0.0000 
179 H1      -8.3652     7.1354    22.7501 H      60 HOH   0.0000 
180 H2      -9.6155     7.7824    23.3971 H      60 HOH   0.0000 
181 O       -0.1155    19.8070    55.4629 O.3    61 HOH   0.0000 
182 H1       0.8445    19.8070    55.4629 H      61 HOH   0.0000 
183 H2      -0.4058    20.4541    56.1100 H      61 HOH   0.0000 
184 O       -2.9226    22.8631    16.8869 O.3    62 HOH   0.0000 
185 H1      -1.9626    22.8631    16.8869 H      62 HOH   0.0000 
186 H2      -3.2128    23.5101    17.5340 H      62 HOH   0.0000 
187 O       -6.4030     9.6699    33.9906 O.3    63 HOH   0.0000 
188 H1      -5.4430     9.6699    33.9906 H      63 HOH   0.0000 
189 H2      -6.6933    10.3170    34.6377 H      63 HOH   0.0000 
190 O      -18.4968    24.1262    43.9811 O.3    64 HOH   0.0000 
191 H1     -17.5368    24.1262    43.9811 H      64 HOH   0.0000 
192 H2     -18.7871    24.7732    44.6281 H      64 HOH   0.0000 
193 O       14.4227    30.1552    34.2705 O.3    65 HOH   0.0000 
194 H1      15.3827    30.1552    34.2705 H      65 HOH   0.0000 
195 H2      14.1324    30.8023    34.9176 H      65 HOH   0.0000 
196 O      -12.7319    27.6603    47.4046 O.3    66 HOH   0.0000 
197 H1     -11.7719    27.6603    47.4046 H      66 HOH   0.0000 
198 H2     -13.0222    28.3073    48.0516 H      66 HOH   0.0000 
199 O      -12.7275    12.1613    46.8957 O.3    67 HOH   0.0000 
200 H1     -11.7675    12.1613    46.8957 H      67 HOH   0.0000 
201 H2     -13.0178    12.8084    47.5427 H      67 HOH   0.0000 
202 O      -10.8371    30.5399    28.8612 O.3    68 HOH   0.0000 
203 H1      -9.8771    30.5399    28.8612 H      68 HOH   0.0000 
204 H2     -11.1274    31.1870    29.5082 H      68 HOH   0.0000 
205 O      -15.4664    -2.4568    26.7497 O.3    69 HOH   0.0000 
206 H1     -14.5064    -2.4568    26.7497 H      69 HOH   0.0000 
207 H2     -15.7566    -1.8098    27.3967 H      69 HOH   0.0000 
208 O       13.3918    28.4071    32.5663 O.3    70 HOH   0.0000 
209 H1      14.3518    28.4071    32.5663 H      70 HOH   0.0000 
210 H2      13.1016    29.0542    33.2133 H      70 HOH   0.0000 
211 O        4.7130    16.7998    26.1908 O.3    71 HOH   0.0000 
212 H1       5.6730    16.7998    26.1908 H      71 HOH   0.0000 
213 H2       4.4228    17.4469    26.8379 H      71 HOH   0.0000 
214 O       -1.7250    24.2123    18.9117 O.3    72 HOH   0.0000 
215 H1      -0.7650    24.2123    18.9117 H      72 HOH   0.0000 
216 H2      -2.0153    24.8593    19.5587 H      72 HOH   0.0000 
217 O      -26.9426     6.8933    23.3098 O.3    73 HOH   0.0000 
218 H1     -25.9826     6.8933    23.3098 H      73 HOH   0.0000 
219 H2     -27.2328     7.5403    23.9568 H      73 HOH   0.0000 
220 O       18.5371    28.9251    42.7264 O.3    74 HOH   0.0000 
221 H1      19.4971    28.9251    42.7264 H      74 HOH   0.0000 
222 H2      18.2468    29.5721    43.3735 H      74 HOH   0.0000 
223 O      -15.2058    21.5906    13.7129 O.3    75 HOH   0.0000 
224 H1     -14.2458    21.5906    13.7129 H      75 HOH   0.0000 
225 H2     -15.4961    22.2377    14.3600 H      75 HOH   0.0000 
226 O        1.1531    18.0552     8.7544 O.3    76 HOH   0.0000 
227 H1       2.1131    18.0552     8.7544 H      76 HOH   0.0000 
228 H2       0.8629    18.7023     9.4015 H      76 HOH   0.0000 
229 O      -23.9551     4.2444    23.5097 O.3    77 HOH   0.0000 
230 H1     -22.9951     4.2444    23.5097 H      77 HOH   0.0000 
231 H2     -24.2454     4.8914    24.1567 H      77 HOH   0.0000 
232 O        0.8761     9.2431    45.9510 O.3    78 HOH  -0.8340 
233 H1       1.3034     9.9550    46.4272 H      78 HOH   0.4170 
234 H2       0.0032     9.1847    46.3393 H      78 HOH   0.4170 
235 O       -1.0677    28.2409    52.0774 O.3    79 HOH   0.0000 
236 H1      -0.1077    28.2409    52.0774 H      79 HOH   0.0000 
237 H2      -1.3579    28.8879    52.7244 H      79 HOH   0.0000 
238 O      -14.3511     6.1029    22.2951 O.3    80 HOH   0.0000 
239 H1     -13.3911     6.1029    22.2951 H      80 HOH   0.0000 
240 H2     -14.6414     6.7499    22.9421 H      80 HOH   0.0000 
241 O        1.4723    18.1598    30.4295 O.3    81 HOH   0.0000 
242 H1       2.4323    18.1598    30.4295 H      81 HOH   0.0000 
243 H2       1.1820    18.8068    31.0766 H      81 HOH   0.0000 
244 O       -3.9636     0.4810    19.1228 O.3    82 HOH   0.0000 
245 H1      -3.0036     0.4810    19.1228 H      82 HOH   0.0000 
246 H2      -4.2539     1.1280    19.7699 H      82 HOH   0.0000 
247 O       -9.0183    -4.8495    12.6581 O.3    83 HOH   0.0000 
248 H1      -8.0583    -4.8495    12.6581 H      83 HOH   0.0000 
249 H2      -9.3086    -4.2025    13.3051 H      83 HOH   0.0000 
250 O      -14.1092     6.3965    12.7247 O.3    84 HOH   0.0000 
251 H1     -13.1492     6.3965    12.7247 H      84 HOH   0.0000 
252 H2     -14.3995     7.0435    13.3717 H      84 HOH   0.0000 
253 O       -8.7918    16.8305     8.9100 O.3    85 HOH   0.0000 
254 H1      -7.8318    16.8305     8.9100 H      85 HOH   0.0000 
255 H2      -9.0821    17.4776     9.5570 H      85 HOH   0.0000 
256 O       14.5951    25.2987    53.9753 O.3    86 HOH   0.0000 
257 H1      15.5551    25.2987    53.9753 H      86 HOH   0.0000 
258 H2      14.3048    25.9457    54.6224 H      86 HOH   0.0000 
259 O       10.1049    16.3691    36.2951 O.3    87 HOH   0.0000 
260 H1      11.0649    16.3691    36.2951 H      87 HOH   0.0000 
261 H2       9.8146    17.0161    36.9422 H      87 HOH   0.0000 
262 O       -3.8675     8.1966    40.3117 O.3    88 HOH  -0.8340 
263 H1      -4.3477     7.4050    40.0688 H      88 HOH   0.4170 
264 H2      -4.0618     8.3196    41.2409 H      88 HOH   0.4170 
265 O      -23.2678     7.2498    40.2207 O.3    89 HOH   0.0000 
266 H1     -22.3078     7.2498    40.2207 H      89 HOH   0.0000 
267 H2     -23.5581     7.8969    40.8678 H      89 HOH   0.0000 
268 O      -14.2059    28.1258    17.1014 O.3    90 HOH   0.0000 
269 H1     -13.2459    28.1258    17.1014 H      90 HOH   0.0000 
270 H2     -14.4962    28.7729    17.7484 H      90 HOH   0.0000 
271 O      -15.1702     4.4195    40.2229 O.3    91 HOH   0.0000 
272 H1     -14.2102     4.4195    40.2229 H      91 HOH   0.0000 
273 H2     -15.4605     5.0665    40.8699 H      91 HOH   0.0000 
274 O        2.6139    33.4095    25.7865 O.3    92 HOH   0.0000 
275 H1       3.5739    33.4095    25.7865 H      92 HOH   0.0000 
276 H2       2.3236    34.0566    26.4335 H      92 HOH   0.0000 
277 O       -3.3144    12.3330    20.8402 O.3    93 HOH   0.0000 
278 H1      -2.3544    12.3330    20.8402 H      93 HOH   0.0000 
279 H2      -3.6047    12.9800    21.4872 H      93 HOH   0.0000 
280 O       20.9389    32.6137    51.3933 O.3    94 HOH   0.0000 
281 H1      21.8989    32.6137    51.3933 H      94 HOH   0.0000 
282 H2      20.6486    33.2607    52.0403 H      94 HOH   0.0000 
283 O       -6.0447     2.8265    32.7984 O.3    95 HOH   0.0000 
284 H1      -5.0847     2.8265    32.7984 H      95 HOH   0.0000 
285 H2      -6.3350     3.4736    33.4454 H      95 HOH   0.0000 
286 O       -7.9071     8.9387     7.2335 O.3    96 HOH   0.0000 
287 H1      -6.9471     8.9387     7.2335 H      96 HOH   0.0000 
288 H2      -8.1974     9.5858     7.8805 H      96 HOH   0.0000 
289 O       -1.8306    11.4322    24.1573 O.3    97 HOH   0.0000 
290 H1      -0.8706    11.4322    24.1573 H      97 HOH   0.0000 
291 H2      -2.1209    12.0793    24.8043 H      97 HOH   0.0000 
292 O        1.6587    14.6191    39.3708 O.3    98 HOH  -0.8340 
293 H1       0.9020    15.0789    39.0071 H      98 HOH   0.4170 
294 H2       1.4634    13.6917    39.2361 H      98 HOH   0.4170 
295 O        2.6842    28.8554    11.9044 O.3    99 HOH   0.0000 
296 H1       3.6442    28.8554    11.9044 H      99 HOH   0.0000 
297 H2       2.3940    29.5025    12.5514 H      99 HOH   0.0000 
298 O      -18.0290     8.5229    15.1427 O.3   100 HOH   0.0000 
299 H1     -17.0690     8.5229    15.1427 H     100 HOH   0.0000 
300 H2     -18.3193     9.1699    15.7898 H     100 HOH   0.0000 
301 O       -8.5219    25.3730    47.1986 O.3   101 HOH   0.0000 
302 H1      -7.5619    25.3730    47.1986 H     101 HOH   0.0000 
303 H2      -8.8122    26.0200    47.8456 H     101 HOH   0.0000 
304 O       -3.4949    32.4893    38.1295 O.3   102 HOH   0.0000 
305 H1      -2.5349    32.4893    38.1295 H     102 HOH   0.0000 
306 H2      -3.7852    33.1363    38.7766 H     102 HOH   0.0000 
307 O        3.0521    29.5528    20.7907 O.3   103 HOH   0.0000 
308 H1       4.0121    29.5528    20.7907 H     103 HOH   0.0000 
309 H2       2.7618    30.1999    21.4378 H     103 HOH   0.0000 
310 O      -18.0587     1.2718    26.4267 O.3   104 HOH   0.0000 
311 H1     -17.0987     1.2718    26.4267 H     104 HOH   0.0000 
312 H2     -18.3489     1.9188    27.0737 H     104 HOH   0.0000 
313 O       -3.4259    11.7852    27.5849 O.3   105 HOH   0.0000 
314 H1      -2.4659    11.7852    27.5849 H     105 HOH   0.0000 
315 H2      -3.7161    12.4322    28.2319 H     105 HOH   0.0000 
316 O      -16.0357     9.7100    12.9950 O.3   106 HOH   0.0000 
317 H1     -15.0757     9.7100    12.9950 H     106 HOH   0.0000 
318 H2     -16.3260    10.3571    13.6420 H     106 HOH   0.0000 
319 O      -26.2033    13.0791    40.4839 O.3   107 HOH   0.0000 
320 H1     -25.2433    13.0791    40.4839 H     107 HOH   0.0000 
321 H2     -26.4936    13.7262    41.1310 H     107 HOH   0.0000 
322 O       -4.8984    12.0319    46.6834 O.3   108 HOH  -0.8340 
323 H1      -5.6660    12.4799    47.0389 H     108 HOH   0.4170 
324 H2      -4.3009    11.9529    47.4270 H     108 HOH   0.4170 
325 O       -3.9294    12.0327    44.1757 O.3   109 HOH  -0.8340 
326 H1      -4.1881    11.3098    43.6041 H     109 HOH   0.4170 
327 H2      -4.2772    11.7952    45.0353 H     109 HOH   0.4170 
328 O       -0.8603     2.8290    26.6417 O.3   110 HOH   0.0000 
329 H1       0.0997     2.8290    26.6417 H     110 HOH   0.0000 
330 H2      -1.1506     3.4760    27.2887 H     110 HOH   0.0000 
331 O       -3.5974    18.2198    51.6175 O.3   111 HOH  -0.8340 
332 H1      -2.8104    17.6919    51.7525 H     111 HOH   0.4170 
333 H2      -4.0283    17.8193    50.8624 H     111 HOH   0.4170 
334 O      -12.9078    27.7351    38.8135 O.3   112 HOH   0.0000 
335 H1     -11.9478    27.7351    38.8135 H     112 HOH   0.0000 
336 H2     -13.1981    28.3822    39.4606 H     112 HOH   0.0000 
337 O      -18.3071    18.3748    12.0808 O.3   113 HOH   0.0000 
338 H1     -17.3471    18.3748    12.0808 H     113 HOH   0.0000 
339 H2     -18.5973    19.0219    12.7279 H     113 HOH   0.0000 
340 O        0.1658    33.7479    21.1580 O.3   114 HOH   0.0000 
341 H1       1.1258    33.7479    21.1580 H     114 HOH   0.0000 
342 H2      -0.1245    34.3950    21.8051 H     114 HOH   0.0000 
343 O        3.9233    26.6584    15.1260 O.3   115 HOH   0.0000 
344 H1       4.8833    26.6584    15.1260 H     115 HOH   0.0000 
345 H2       3.6330    27.3055    15.7730 H     115 HOH   0.0000 
346 O       -4.4877    36.1140    22.8323 O.3   116 HOH   0.0000 
347 H1      -3.5277    36.1140    22.8323 H     116 HOH   0.0000 
348 H2      -4.7780    36.7610    23.4793 H     116 HOH   0.0000 
349 O      -18.7656    13.0727    52.7441 O.3   117 HOH   0.0000 
350 H1     -17.8056    13.0727    52.7441 H     117 HOH   0.0000 
351 H2     -19.0558    13.7197    53.3912 H     117 HOH   0.0000 
352 O       -3.8361     3.2328    27.4949 O.3   118 HOH   0.0000 
353 H1      -2.8761     3.2328    27.4949 H     118 HOH   0.0000 
354 H2      -4.1264     3.8799    28.1420 H     118 HOH   0.0000 
355 O        4.1490    10.7219     9.7419 O.3   119 HOH   0.0000 
356 H1       5.1090    10.7219     9.7419 H     119 HOH   0.0000 
357 H2       3.8587    11.3689    10.3890 H     119 HOH   0.0000 
358 O       18.8083    24.3741    43.9692 O.3   120 HOH   0.0000 
359 H1      19.7683    24.3741    43.9692 H     120 HOH   0.0000 
360 H2      18.5180    25.0212    44.6162 H     120 HOH   0.0000 
361 O        8.7870    35.8213    32.3051 O.3   121 HOH   0.0000 
362 H1       9.7470    35.8213    32.3051 H     121 HOH   0.0000 
363 H2       8.4967    36.4684    32.9522 H     121 HOH   0.0000 
364 O      -12.0993     0.8160    36.1642 O.3   122 HOH   0.0000 
365 H1     -11.1393     0.8160    36.1642 H     122 HOH   0.0000 
366 H2     -12.3895     1.4630    36.8113 H     122 HOH   0.0000 
367 O      -26.9191    17.3888    40.6070 O.3   123 HOH   0.0000 
368 H1     -25.9591    17.3888    40.6070 H     123 HOH   0.0000 
369 H2     -27.2093    18.0358    41.2541 H     123 HOH   0.0000 
370 O      -20.9441     3.1302    32.7091 O.3   124 HOH   0.0000 
371 H1     -19.9841     3.1302    32.7091 H     124 HOH   0.0000 
372 H2     -21.2344     3.7773    33.3561 H     124 HOH   0.0000 
373 O       13.8707    21.5678    53.4824 O.3   125 HOH   0.0000 
374 H1      14.8307    21.5678    53.4824 H     125 HOH   0.0000 
375 H2      13.5804    22.2148    54.1295 H     125 HOH   0.0000 
376 O       15.7246    35.0414    48.4816 O.3   126 HOH   0.0000 
377 H1      16.6846    35.0414    48.4816 H     126 HOH   0.0000 
378 H2      15.4343    35.6884    49.1286 H     126 HOH   0.0000 
379 O       -6.0592    20.1026    13.1912 O.3   127 HOH   0.0000 
380 H1      -5.0992    20.1026    13.1912 H     127 HOH   0.0000 
381 H2      -6.3495    20.7497    13.8383 H     127 HOH   0.0000 
382 O       -2.2540    34.4175    17.7636 O.3   128 HOH   0.0000 
383 H1      -1.2940    34.4175    17.7636 H     128 HOH   0.0000 
384 H2      -2.5442    35.0646    18.4107 H     128 HOH   0.0000 
385 O       10.8757    31.6065    26.9211 O.3   129 HOH   0.0000 
386 H1      11.8357    31.6065    26.9211 H     129 HOH   0.0000 
387 H2      10.5854    32.2536    27.5681 H     129 HOH   0.0000 
388 O       -5.2022    -4.5663    15.8011 O.3   130 HOH   0.0000 
389 H1      -4.2422    -4.5663    15.8011 H     130 HOH   0.0000 
390 H2      -5.4925    -3.9193    16.4481 H     130 HOH   0.0000 
391 O       15.0588    31.5062    55.0047 O.3   131 HOH   0.0000 
392 H1      16.0188    31.5062    55.0047 H     131 HOH   0.0000 
393 H2      14.7685    32.1532    55.6517 H     131 HOH   0.0000 
394 O       -5.7858     3.2780    36.7873 O.3   132 HOH   0.0000 
395 H1      -4.8258     3.2780    36.7873 H     132 HOH   0.0000 
396 H2      -6.0761     3.9251    37.4343 H     132 HOH   0.0000 
397 O       19.8124    18.6718    28.4084 O.3   133 HOH   0.0000 
398 H1      20.7724    18.6718    28.4084 H     133 HOH   0.0000 
399 H2      19.5221    19.3189    29.0554 H     133 HOH   0.0000 
400 O       -1.5170    16.2902    52.1074 O.3   134 HOH  -0.8340 
401 H1      -1.9727    15.7488    51.4627 H     134 HOH   0.4170 
402 H2      -1.6105    15.8121    52.9313 H     134 HOH   0.4170 
403 O       14.4840    17.1615    47.6344 O.3   135 HOH   0.0000 
404 H1      15.4440    17.1615    47.6344 H     135 HOH   0.0000 
405 H2      14.1937    17.8086    48.2815 H     135 HOH   0.0000 
406 O      -29.3945    11.1164    32.3489 O.3   136 HOH   0.0000 
407 H1     -28.4345    11.1164    32.3489 H     136 HOH   0.0000 
408 H2     -29.6848    11.7634    32.9960 H     136 HOH   0.0000 
409 O       -6.3034    24.0470    46.5917 O.3   137 HOH   0.0000 
410 H1      -5.3434    24.0470    46.5917 H     137 HOH   0.0000 
411 H2      -6.5937    24.6941    47.2387 H     137 HOH   0.0000 
412 O      -12.2869     9.9512    50.5766 O.3   138 HOH   0.0000 
413 H1     -11.3269     9.9512    50.5766 H     138 HOH   0.0000 
414 H2     -12.5772    10.5983    51.2237 H     138 HOH   0.0000 
415 O       -7.7215    -3.3973    29.6759 O.3   139 HOH   0.0000 
416 H1      -6.7615    -3.3973    29.6759 H     139 HOH   0.0000 
417 H2      -8.0118    -2.7503    30.3230 H     139 HOH   0.0000 
418 O       -6.9645     5.0685    34.3418 O.3   140 HOH   0.0000 
419 H1      -6.0045     5.0685    34.3418 H     140 HOH   0.0000 
420 H2      -7.2548     5.7155    34.9889 H     140 HOH   0.0000 
421 O      -25.2453    30.3692    28.8820 O.3   141 HOH   0.0000 
422 H1     -24.2853    30.3692    28.8820 H     141 HOH   0.0000 
423 H2     -25.5356    31.0163    29.5291 H     141 HOH   0.0000 
424 O        3.0631     8.2728    43.4062 O.3   142 HOH  -0.8340 
425 H1       3.4939     7.4208    43.4765 H     142 HOH   0.4170 
426 H2       2.5056     8.3246    44.1825 H     142 HOH   0.4170 
427 O        0.2462    11.3231    49.7870 O.3   143 HOH  -0.8340 
428 H1       0.5343    11.4788    48.8876 H     143 HOH   0.4170 
429 H2      -0.6079    11.7516    49.8430 H     143 HOH   0.4170 
430 O       -5.4564    33.6656    36.7600 O.3   144 HOH   0.0000 
431 H1      -4.4964    33.6656    36.7600 H     144 HOH   0.0000 
432 H2      -5.7466    34.3126    37.4070 H     144 HOH   0.0000 
433 O        0.7468    22.1020     9.7032 O.3   145 HOH   0.0000 
434 H1       1.7068    22.1020     9.7032 H     145 HOH   0.0000 
435 H2       0.4566    22.7491    10.3502 H     145 HOH   0.0000 
436 O       -6.8979    -5.8508    28.3157 O.3   146 HOH   0.0000 
437 H1      -5.9379    -5.8508    28.3157 H     146 HOH   0.0000 
438 H2      -7.1881    -5.2038    28.9628 H     146 HOH   0.0000 
439 O      -29.3813    15.3982    28.0910 O.3   147 HOH   0.0000 
440 H1     -28.4213    15.3982    28.0910 H     147 HOH   0.0000 
441 H2     -29.6715    16.0453    28.7380 H     147 HOH   0.0000 
442 O      -16.0178    28.8213    32.7947 O.3   148 HOH   0.0000 
443 H1     -15.0578    28.8213    32.7947 H     148 HOH   0.0000 
444 H2     -16.3081    29.4683    33.4417 H     148 HOH   0.0000 
445 O      -22.1388    17.7174    19.6065 O.3   149 HOH   0.0000 
446 H1     -21.1788    17.7174    19.6065 H     149 HOH   0.0000 
447 H2     -22.4291    18.3644    20.2535 H     149 HOH   0.0000 
448 O      -20.3823     9.8868    15.5617 O.3   150 HOH   0.0000 
449 H1     -19.4223     9.8868    15.5617 H     150 HOH   0.0000 
450 H2     -20.6726    10.5339    16.2088 H     150 HOH   0.0000 
451 O       -9.0581    -2.0843    31.6449 O.3   151 HOH   0.0000 
452 H1      -8.0981    -2.0843    31.6449 H     151 HOH   0.0000 
453 H2      -9.3484    -1.4372    32.2920 H     151 HOH   0.0000 
454 O      -28.8635    17.8365    38.2431 O.3   152 HOH   0.0000 
455 H1     -27.9035    17.8365    38.2431 H     152 HOH   0.0000 
456 H2     -29.1538    18.4835    38.8902 H     152 HOH   0.0000 
457 O      -18.4882    28.8560    36.0996 O.3   153 HOH   0.0000 
458 H1     -17.5282    28.8560    36.0996 H     153 HOH   0.0000 
459 H2     -18.7785    29.5030    36.7466 H     153 HOH   0.0000 
460 O        6.7395     5.9443    37.5078 O.3   154 HOH   0.0000 
461 H1       7.6995     5.9443    37.5078 H     154 HOH   0.0000 
462 H2       6.4493     6.5913    38.1549 H     154 HOH   0.0000 
463 O       -5.4936    36.5867    28.8280 O.3   155 HOH   0.0000 
464 H1      -4.5336    36.5867    28.8280 H     155 HOH   0.0000 
465 H2      -5.7839    37.2338    29.4750 H     155 HOH   0.0000 
466 O        1.2232    17.6092    33.0274 O.3   156 HOH   0.0000 
467 H1       2.1832    17.6092    33.0274 H     156 HOH   0.0000 
468 H2       0.9330    18.2563    33.6744 H     156 HOH   0.0000 
469 O        8.3533    14.9997    21.2362 O.3   157 HOH   0.0000 
470 H1       9.3133    14.9997    21.2362 H     157 HOH   0.0000 
471 H2       8.0630    15.6467    21.8832 H     157 HOH   0.0000 
472 O        3.8770    11.0447    35.6930 O.3   158 HOH   0.0000 
473 H1       4.8370    11.0447    35.6930 H     158 HOH   0.0000 
474 H2       3.5868    11.6918    36.3400 H     158 HOH   0.0000 
475 O       -3.1120    13.8096    23.1501 O.3   159 HOH   0.0000 
476 H1      -2.1520    13.8096    23.1501 H     159 HOH   0.0000 
477 H2      -3.4022    14.4566    23.7971 H     159 HOH   0.0000 
478 O       -2.0410    30.8404    42.7109 O.3   160 HOH   0.0000 
479 H1      -1.0810    30.8404    42.7109 H     160 HOH   0.0000 
480 H2      -2.3313    31.4875    43.3580 H     160 HOH   0.0000 
481 O       -9.6337    12.4945    47.3653 O.3   161 HOH   0.0000 
482 H1      -8.6737    12.4945    47.3653 H     161 HOH   0.0000 
483 H2      -9.9240    13.1415    48.0124 H     161 HOH   0.0000 
484 O       -5.8145     9.1676    10.7395 O.3   162 HOH   0.0000 
485 H1      -4.8545     9.1676    10.7395 H     162 HOH   0.0000 
486 H2      -6.1048     9.8147    11.3865 H     162 HOH   0.0000 
487 O      -23.5546     5.9421    37.8303 O.3   163 HOH   0.0000 
488 H1     -22.5946     5.9421    37.8303 H     163 HOH   0.0000 
489 H2     -23.8449     6.5892    38.4773 H     163 HOH   0.0000 
490 O      -13.2229     2.5890    39.3758 O.3   164 HOH   0.0000 
491 H1     -12.2629     2.5890    39.3758 H     164 HOH   0.0000 
492 H2     -13.5132     3.2361    40.0228 H     164 HOH   0.0000 
493 O        5.5343    13.0955    35.8592 O.3   165 HOH   0.0000 
494 H1       6.4943    13.0955    35.8592 H     165 HOH   0.0000 
495 H2       5.2441    13.7426    36.5062 H     165 HOH   0.0000 
496 O      -22.5574     2.7486    21.1984 O.3   166 HOH   0.0000 
497 H1     -21.5974     2.7486    21.1984 H     166 HOH   0.0000 
498 H2     -22.8477     3.3956    21.8454 H     166 HOH   0.0000 
499 O      -12.2559    29.5128    18.3721 O.3   167 HOH   0.0000 
500 H1     -11.2959    29.5128    18.3721 H     167 HOH   0.0000 
501 H2     -12.5461    30.1598    19.0192 H     167 HOH   0.0000 
502 O        0.8241    16.5400    37.7644 O.3   168 HOH  -0.8340 
503 H1       0.5895    17.4671    37.7241 H     168 HOH   0.4170 
504 H2       0.4832    16.1706    36.9498 H     168 HOH   0.4170 
505 O       -8.0637    24.5480    15.4847 O.3   169 HOH   0.0000 
506 H1      -7.1037    24.5480    15.4847 H     169 HOH   0.0000 
507 H2      -8.3540    25.1950    16.1318 H     169 HOH   0.0000 
508 O       -6.4797    11.6833     9.8975 O.3   170 HOH   0.0000 
509 H1      -5.5197    11.6833     9.8975 H     170 HOH   0.0000 
510 H2      -6.7700    12.3303    10.5446 H     170 HOH   0.0000 
511 O      -20.5168    21.8087    20.2061 O.3   171 HOH   0.0000 
512 H1     -19.5568    21.8087    20.2061 H     171 HOH   0.0000 
513 H2     -20.8070    22.4558    20.8532 H     171 HOH   0.0000 
514 O      -14.0247    13.7313    48.8504 O.3   172 HOH   0.0000 
515 H1     -13.0647    13.7313    48.8504 H     172 HOH   0.0000 
516 H2     -14.3150    14.3784    49.4974 H     172 HOH   0.0000 
517 O       12.6833    19.2775    25.1997 O.3   173 HOH   0.0000 
518 H1      13.6433    19.2775    25.1997 H     173 HOH   0.0000 
519 H2      12.3931    19.9246    25.8467 H     173 HOH   0.0000 
520 O      -19.1694     1.9013    31.1750 O.3   174 HOH   0.0000 
521 H1     -18.2094     1.9013    31.1750 H     174 HOH   0.0000 
522 H2     -19.4597     2.5484    31.8220 H     174 HOH   0.0000 
523 O      -20.5264    19.6970    18.5539 O.3   175 HOH   0.0000 
524 H1     -19.5664    19.6970    18.5539 H     175 HOH   0.0000 
525 H2     -20.8166    20.3441    19.2010 H     175 HOH   0.0000 
@<TRIPOS>BOND
  1   1   2  1   
  2   1   3  1   
  3   4   5  1   
  4   4   6  1   
  5   7   8  1   
  6   7   9  1   
  7  10  11  1   
  8  10  12  1   
  9  13  14  1   
 10  13  15  1   
 11  16  17  1   
 12  16  18  1   
 13  19  20  1   
 14  19  21  1   
 15  22  23  1   
 16  22  24  1   
 17  25  26  1   
 18  25  27  1   
 19  28  29  1   
 20  28  30  1   
 21  31  32  1   
 22  31  33  1   
 23  34  35  1   
 24  34  36  1   
 25  37  38  1   
 26  37  39  1   
 27  40  41  1   
 28  40  42  1   
 29  43  44  1   
 30  43  45  1   
 31  46  47  1   
 32  46  48  1   
 33  49  50  1   
 34  49  51  1   
 35  52  53  1   
 36  52  54  1   
 37  55  56  1   
 38  55  57  1   
 39  58  59  1   
 40  58  60  1   
 41  61  62  1   
 42  61  63  1   
 43  64  65  1   
 44  64  66  1   
 45  67  68  1   
 46  67  69  1   
 47  70  71  1   
 48  70  72  1   
 49  73  74  1   
 50  73  75  1   
 51  76  77  1   
 52  76  78  1   
 53  79  80  1   
 54  79  81  1   
 55  82  83  1   
 56  82  84  1   
 57  85  86  1   
 58  85  87  1   
 59  88  89  1   
 60  88  90  1   
 61  91  92  1   
 62  91  93  1   
 63  94  95  1   
 64  94  96  1   
 65  97  98  1   
 66  97  99  1   
 67 100 101  1   
 68 100 102  1   
 69 103 104  1   
 70 103 105  1   
 71 106 107  1   
 72 106 108  1   
 73 109 110  1   
 74 109 111  1   
 75 112 113  1   
 76 112 114  1   
 77 115 116  1   
 78 115 117  1   
 79 118 119  1   
 80 118 120  1   
 81 121 122  1   
 82 121 123  1   
 83 124 125  1   
 84 124 126  1   
 85 127 128  1   
 86 127 129  1   
 87 130 131  1   
 88 130 132  1   
 89 133 134  1   
 90 133 135  1   
 91 136 137  1   
 92 136 138  1   
 93 139 140  1   
 94 139 141  1   
 95 142 143  1   
 96 142 144  1   
 97 145 146  1   
 98 145 147  1   
 99 148 149  1   
100 148 150  1   
101 151 152  1   
102 151 153  1   
103 154 155  1   
104 154 156  1   
105 157 158  1   
106 157 159  1   
107 160 161  1   
108 160 162  1   
109 163 164  1   
110 163 165  1   
111 166 167  1   
112 166 168  1   
113 169 170  1   
114 169 171  1   
115 172 173  1   
116 172 174  1   
117 175 176  1   
118 175 177  1   
119 178 179  1   
120 178 180  1   
121 181 182  1   
122 181 183  1   
123 184 185  1   
124 184 186  1   
125 187 188  1   
126 187 189  1   
127 190 191  1   
128 190 192  1   
129 193 194  1   
130 193 195  1   
131 196 197  1   
132 196 198  1   
133 199 200  1   
134 199 201  1   
135 202 203  1   
136 202 204  1   
137 205 206  1   
138 205 207  1   
139 208 209  1   
140 208 210  1   
141 211 212  1   
142 211 213  1   
143 214 215  1   
144 214 216  1   
145 217 218  1   
146 217 219  1   
147 220 221  1   
148 220 222  1   
149 223 224  1   
150 223 225  1   
151 226 227  1   
152 226 228  1   
153 229 230  1   
154 229 231  1   
155 232 233  1   
156 232 234  1   
157 235 236  1   
158 235 237  1   
159 238 239  1   
160 238 240  1   
161 241 242  1   
162 241 243  1   
163 244 245  1   
164 244 246  1   
165 247 248  1   
166 247 249  1   
167 250 251  1   
168 250 252  1   
169 253 254  1   
170 253 255  1   
171 256 257  1   
172 256 258  1   
173 259 260  1   
174 259 261  1   
175 262 263  1   
176 262 264  1   
177 265 266  1   
178 265 267  1   
179 268 269  1   
180 268 270  1   
181 271 272  1   
182 271 273  1   
183 274 275  1   
184 274 276  1   
185 277 278  1   
186 277 279  1   
187 280 281  1   
188 280 282  1   
189 283 284  1   
190 283 285  1   
191 286 287  1   
192 286 288  1   
193 289 290  1   
194 289 291  1   
195 292 293  1   
196 292 294  1   
197 295 296  1   
198 295 297  1   
199 298 299  1   
200 298 300  1   
201 301 302  1   
202 301 303  1   
203 304 305  1   
204 304 306  1   
205 307 308  1   
206 307 309  1   
207 310 311  1   
208 310 312  1   
209 313 314  1   
210 313 315  1   
211 316 317  1   
212 316 318  1   
213 319 320  1   
214 319 321  1   
215 322 323  1   
216 322 324  1   
217 325 326  1   
218 325 327  1   
219 328 329  1   
220 328 330  1   
221 331 332  1   
222 331 333  1   
223 334 335  1   
224 334 336  1   
225 337 338  1   
226 337 339  1   
227 340 341  1   
228 340 342  1   
229 343 344  1   
230 343 345  1   
231 346 347  1   
232 346 348  1   
233 349 350  1   
234 349 351  1   
235 352 353  1   
236 352 354  1   
237 355 356  1   
238 355 357  1   
239 358 359  1   
240 358 360  1   
241 361 362  1   
242 361 363  1   
243 364 365  1   
244 364 366  1   
245 367 368  1   
246 367 369  1   
247 370 371  1   
248 370 372  1   
249 373 374  1   
250 373 375  1   
251 376 377  1   
252 376 378  1   
253 379 380  1   
254 379 381  1   
255 382 383  1   
256 382 384  1   
257 385 386  1   
258 385 387  1   
259 388 389  1   
260 388 390  1   
261 391 392  1   
262 391 393  1   
263 394 395  1   
264 394 396  1   
265 397 398  1   
266 397 399  1   
267 400 401  1   
268 400 402  1   
269 403 404  1   
270 403 405  1   
271 406 407  1   
272 406 408  1   
273 409 410  1   
274 409 411  1   
275 412 413  1   
276 412 414  1   
277 415 416  1   
278 415 417  1   
279 418 419  1   
280 418 420  1   
281 421 422  1   
282 421 423  1   
283 424 425  1   
284 424 426  1   
285 427 428  1   
286 427 429  1   
287 430 431  1   
288 430 432  1   
289 433 434  1   
290 433 435  1   
291 436 437  1   
292 436 438  1   
293 439 440  1   
294 439 441  1   
295 442 443  1   
296 442 444  1   
297 445 446  1   
298 445 447  1   
299 448 449  1   
300 448 450  1   
301 451 452  1   
302 451 453  1   
303 454 455  1   
304 454 456  1   
305 457 458  1   
306 457 459  1   
307 460 461  1   
308 460 462  1   
309 463 464  1   
310 463 465  1   
311 466 467  1   
312 466 468  1   
313 469 470  1   
314 469 471  1   
315 472 473  1   
316 472 474  1   
317 475 476  1   
318 475 477  1   
319 478 479  1   
320 478 480  1   
321 481 482  1   
322 481 483  1   
323 484 485  1   
324 484 486  1   
325 487 488  1   
326 487 489  1   
327 490 491  1   
328 490 492  1   
329 493 494  1   
330 493 495  1   
331 496 497  1   
332 496 498  1   
333 499 500  1   
334 499 501  1   
335 502 503  1   
336 502 504  1   
337 505 506  1   
338 505 507  1   
339 508 509  1   
340 508 510  1   
341 511 512  1   
342 511 513  1   
343 514 515  1   
344 514 516  1   
345 517 518  1   
346 517 519  1   
347 520 521  1   
348 520 522  1   
349 523 524  1   
350 523 525  1   
@<TRIPOS>SUBSTRUCTURE
  1 HOH   1 GROUP 4 A **** 0
  2 HOH   4 GROUP 4 A **** 0
  3 HOH   7 GROUP 4 A **** 0
  4 HOH  10 GROUP 4 A **** 0
  5 HOH  13 GROUP 4 A **** 0
  6 HOH  16 GROUP 4 A **** 0
  7 HOH  19 GROUP 4 A **** 0
  8 HOH  22 GROUP 4 A **** 0
  9 HOH  25 GROUP 4 A **** 0
 10 HOH  28 GROUP 4 A **** 0
 11 HOH  31 GROUP 4 A **** 0
 12 HOH  34 GROUP 4 A **** 0
 13 HOH  37 GROUP 4 A **** 0
 14 HOH  40 GROUP 4 A **** 0
 15 HOH  43 GROUP 4 A **** 0
 16 HOH  46 GROUP 4 A **** 0
 17 HOH  49 GROUP 4 A **** 0
 18 HOH  52 GROUP 4 A **** 0
 19 HOH  55 GROUP 4 A **** 0
 20 HOH  58 GROUP 4 A **** 0
 21 HOH  61 GROUP 4 A **** 0
 22 HOH  64 GROUP 4 A **** 0
 23 HOH  67 GROUP 4 A **** 0
 24 HOH  70 GROUP 4 A **** 0
 25 HOH  73 GROUP 4 A **** 0
 26 HOH  76 GROUP 4 A **** 0
 27 HOH  79 GROUP 4 A **** 0
 28 HOH  82 GROUP 4 A **** 0
 29 HOH  85 GROUP 4 A **** 0
 30 HOH  88 GROUP 4 A **** 0
 31 HOH  91 GROUP 4 A **** 0
 32 HOH  94 GROUP 4 A **** 0
 33 HOH  97 GROUP 4 A **** 0
 34 HOH 100 GROUP 4 A **** 0
 35 HOH 103 GROUP 4 A **** 0
 36 HOH 106 GROUP 4 A **** 0
 37 HOH 109 GROUP 4 A **** 0
 38 HOH 112 GROUP 4 A **** 0
 39 HOH 115 GROUP 4 A **** 0
 40 HOH 118 GROUP 4 A **** 0
 41 HOH 121 GROUP 4 A **** 0
 42 HOH 124 GROUP 4 A **** 0
 43 HOH 127 GROUP 4 A **** 0
 44 HOH 130 GROUP 4 A **** 0
 45 HOH 133 GROUP 4 A **** 0
 46 HOH 136 GROUP 4 A **** 0
 47 HOH 139 GROUP 4 A **** 0
 48 HOH 142 GROUP 4 A **** 0
 49 HOH 145 GROUP 4 A **** 0
 50 HOH 148 GROUP 4 A **** 0
 51 HOH 151 GROUP 4 A **** 0
 52 HOH 154 GROUP 4 A **** 0
 53 HOH 157 GROUP 4 A **** 0
 54 HOH 160 GROUP 4 A **** 0
 55 HOH 163 GROUP 4 A **** 0
 56 HOH 166 GROUP 4 A **** 0
 57 HOH 169 GROUP 4 A **** 0
 58 HOH 172 GROUP 4 A **** 0
 59 HOH 175 GROUP 4 A **** 0
 60 HOH 178 GROUP 4 A **** 0
 61 HOH 181 GROUP 4 A **** 0
 62 HOH 184 GROUP 4 A **** 0
 63 HOH 187 GROUP 4 A **** 0
 64 HOH 190 GROUP 4 A **** 0
 65 HOH 193 GROUP 4 A **** 0
 66 HOH 196 GROUP 4 A **** 0
 67 HOH 199 GROUP 4 A **** 0
 68 HOH 202 GROUP 4 A **** 0
 69 HOH 205 GROUP 4 A **** 0
 70 HOH 208 GROUP 4 A **** 0
 71 HOH 211 GROUP 4 A **** 0
 72 HOH 214 GROUP 4 A **** 0
 73 HOH 217 GROUP 4 A **** 0
 74 HOH 220 GROUP 4 A **** 0
 75 HOH 223 GROUP 4 A **** 0
 76 HOH 226 GROUP 4 A **** 0
 77 HOH 229 GROUP 4 A **** 0
 78 HOH 232 GROUP 4 A **** 0
 79 HOH 235 GROUP 4 A **** 0
 80 HOH 238 GROUP 4 A **** 0
 81 HOH 241 GROUP 4 A **** 0
 82 HOH 244 GROUP 4 A **** 0
 83 HOH 247 GROUP 4 A **** 0
 84 HOH 250 GROUP 4 A **** 0
 85 HOH 253 GROUP 4 A **** 0
 86 HOH 256 GROUP 4 A **** 0
 87 HOH 259 GROUP 4 A **** 0
 88 HOH 262 GROUP 4 A **** 0
 89 HOH 265 GROUP 4 A **** 0
 90 HOH 268 GROUP 4 A **** 0
 91 HOH 271 GROUP 4 A **** 0
 92 HOH 274 GROUP 4 A **** 0
 93 HOH 277 GROUP 4 A **** 0
 94 HOH 280 GROUP 4 A **** 0
 95 HOH 283 GROUP 4 A **** 0
 96 HOH 286 GROUP 4 A **** 0
 97 HOH 289 GROUP 4 A **** 0
 98 HOH 292 GROUP 4 A **** 0
 99 HOH 295 GROUP 4 A **** 0
100 HOH 298 GROUP 4 A **** 0
101 HOH 301 GROUP 4 A **** 0
102 HOH 304 GROUP 4 A **** 0
103 HOH 307 GROUP 4 A **** 0
104 HOH 310 GROUP 4 A **** 0
105 HOH 313 GROUP 4 A **** 0
106 HOH 316 GROUP 4 A **** 0
107 HOH 319 GROUP 4 A **** 0
108 HOH 322 GROUP 4 A **** 0
109 HOH 325 GROUP 4 A **** 0
110 HOH 328 GROUP 4 A **** 0
111 HOH 331 GROUP 4 A **** 0
112 HOH 334 GROUP 4 A **** 0
113 HOH 337 GROUP 4 A **** 0
114 HOH 340 GROUP 4 A **** 0
115 HOH 343 GROUP 4 A **** 0
116 HOH 346 GROUP 4 A **** 0
117 HOH 349 GROUP 4 A **** 0
118 HOH 352 GROUP 4 A **** 0
119 HOH 355 GROUP 4 A **** 0
120 HOH 358 GROUP 4 A **** 0
121 HOH 361 GROUP 4 A **** 0
122 HOH 364 GROUP 4 A **** 0
123 HOH 367 GROUP 4 A **** 0
124 HOH 370 GROUP 4 A **** 0
125 HOH 373 GROUP 4 A **** 0
126 HOH 376 GROUP 4 A **** 0
127 HOH 379 GROUP 4 A **** 0
128 HOH 382 GROUP 4 A **** 0
129 HOH 385 GROUP 4 A **** 0
130 HOH 388 GROUP 4 A **** 0
131 HOH 391 GROUP 4 A **** 0
132 HOH 394 GROUP 4 A **** 0
133 HOH 397 GROUP 4 A **** 0
134 HOH 400 GROUP 4 A **** 0
135 HOH 403 GROUP 4 A **** 0
136 HOH 406 GROUP 4 A **** 0
137 HOH 409 GROUP 4 A **** 0
138 HOH 412 GROUP 4 A **** 0
139 HOH 415 GROUP 4 A **** 0
140 HOH 418 GROUP 4 A **** 0
141 HOH 421 GROUP 4 A **** 0
142 HOH 424 GROUP 4 A **** 0
143 HOH 427 GROUP 4 A **** 0
144 HOH 430 GROUP 4 A **** 0
145 HOH 433 GROUP 4 A **** 0
146 HOH 436 GROUP 4 A **** 0
147 HOH 439 GROUP 4 A **** 0
148 HOH 442 GROUP 4 A **** 0
149 HOH 445 GROUP 4 A **** 0
150 HOH 448 GROUP 4 A **** 0
151 HOH 451 GROUP 4 A **** 0
152 HOH 454 GROUP 4 A **** 0
153 HOH 457 GROUP 4 A **** 0
154 HOH 460 GROUP 4 A **** 0
155 HOH 463 GROUP 4 A **** 0
156 HOH 466 GROUP 4 A **** 0
157 HOH 469 GROUP 4 A **** 0
158 HOH 472 GROUP 4 A **** 0
159 HOH 475 GROUP 4 A **** 0
160 HOH 478 GROUP 4 A **** 0
161 HOH 481 GROUP 4 A **** 0
162 HOH 484 GROUP 4 A **** 0
163 HOH 487 GROUP 4 A **** 0
164 HOH 490 GROUP 4 A **** 0
165 HOH 493 GROUP 4 A **** 0
166 HOH 496 GROUP 4 A **** 0
167 HOH 499 GROUP 4 A **** 0
168 HOH 502 GROUP 4 A **** 0
169 HOH 505 GROUP 4 A **** 0
170 HOH 508 GROUP 4 A **** 0
171 HOH 511 GROUP 4 A **** 0
172 HOH 514 GROUP 4 A **** 0
173 HOH 517 GROUP 4 A **** 0
174 HOH 520 GROUP 4 A **** 0
175 HOH 523 GROUP 4 A **** 0

# MOE 2012.10 (io_trps.svl 2012.10)
