@<TRIPOS>MOLECULE
6bl8.B
10 8 2 0 0 
SMALL
USER_CHARGES


@<TRIPOS>ATOM
  1 S        8.4418    15.1678    23.0099 S.o2  1 SO4   0.0000 
  2 O1       7.5920    14.0491    22.5935 O.co2 1 SO4  -0.5000 
  3 O2       8.0356    15.6285    24.3330 O.co2 1 SO4  -0.5000 
  4 O3       9.8331    14.7284    23.0682 O.co2 1 SO4  -0.5000 
  5 O4       8.3249    16.2740    22.0582 O.co2 1 SO4  -0.5000 
  6 S      -29.0880     5.7214    32.1938 S.o2  2 SO4   0.0000 
  7 O1     -28.1174     4.6992    31.7938 O.co2 2 SO4  -0.5000 
  8 O2     -29.5595     5.4448    33.5503 O.co2 2 SO4  -0.5000 
  9 O3     -28.4522     7.0376    32.1805 O.co2 2 SO4  -0.5000 
 10 O4     -30.2185     5.7117    31.2549 O.co2 2 SO4  -0.5000 
@<TRIPOS>BOND
  1   1   2  ar  
  2   1   3  ar  
  3   1   4  ar  
  4   1   5  ar  
  5   6   7  ar  
  6   6   8  ar  
  7   6   9  ar  
  8   6  10  ar  
@<TRIPOS>SUBSTRUCTURE
  1 SO4   1 GROUP 4 B **** 0
  2 SO4   6 GROUP 4 B **** 0

# MOE 2012.10 (io_trps.svl 2012.10)
