@<TRIPOS>MOLECULE
6bl8.B
54 56 1 0 0 
SMALL
USER_CHARGES


@<TRIPOS>ATOM
  1 N1      -0.2276    16.6522    43.5372 N.ar  1 PVB  -0.6200 
  2 C9       1.7252    20.6572    40.9712 C.3   1 PVB   0.1756 
  3 H9       1.7418    21.7470    40.9745 H     1 PVB   0.0800 
  4 N9       0.9268    20.2000    42.0989 N.pl3 1 PVB   0.0476 
  5 C4       0.7137    18.9501    42.5004 C.ar  1 PVB   0.1054 
  6 N3       1.1378    17.8655    41.9538 N.ar  1 PVB  -0.5670 
  7 C2       0.6051    16.6841    42.4598 C.ar  1 PVB   0.7200 
  8 C6      -0.5554    17.7939    44.1352 C.ar  1 PVB   0.4100 
  9 C5      -0.1257    19.0109    43.5503 C.ar  1 PVB   0.2272 
 10 N7      -0.4697    20.2355    43.8401 N.2   1 PVB  -0.5653 
 11 C8       0.1680    20.9497    42.9593 C.2   1 PVB   0.0365 
 12 H8       0.1056    22.0268    42.9110 H     1 PVB   0.1500 
 13 N6      -1.0963    17.7908    45.4668 N.pl3 1 PVB  -0.6000 
 14 H6      -1.1023    18.6925    45.9219 H     1 PVB   0.4000 
 15 C1A     -1.6347    16.7063    46.2643 C.ar  1 PVB   0.1000 
 16 C2A     -2.7213    16.9604    47.1341 C.ar  1 PVB  -0.1500 
 17 H2A     -3.2198    17.9174    47.0900 H     1 PVB   0.1500 
 18 C3A     -3.1597    16.0118    48.0392 C.ar  1 PVB  -0.1500 
 19 H3A     -3.9603    16.2402    48.7270 H     1 PVB   0.1500 
 20 C4A     -2.5665    14.7825    48.0514 C.ar  1 PVB  -0.1790 
 21 C5A     -1.6037    14.5228    47.1709 C.ar  1 PVB   0.1770 
 22 CL1     -1.1792    12.9561    47.0783 Cl    1 PVB  -0.1770 
 23 C6A     -1.0664    15.4149    46.3200 C.ar  1 PVB  -0.1500 
 24 H6A     -0.2244    15.1511    45.6971 H     1 PVB   0.1500 
 25 CX      -2.8756    13.7600    49.0940 C.2   1 PVB   0.9790 
 26 OX1     -2.0110    12.8112    49.4657 O.co2 1 PVB  -0.9000 
 27 OX2     -3.8800    13.6686    49.7170 O.co2 1 PVB  -0.9000 
 28 N2       0.8937    15.4629    41.8003 N.pl3 1 PVB  -0.8691 
 29 H2       1.5134    15.5374    41.0062 H     1 PVB   0.4000 
 30 C12      0.4273    14.1174    42.1006 C.3   1 PVB   0.2891 
 31 H12     -0.3431    14.1075    42.8716 H     1 PVB   0.0800 
 32 C13      1.6478    13.3344    42.6510 C.3   1 PVB  -0.0800 
 33 H13      1.9767    13.7595    43.5993 H     1 PVB   0.0800 
 34 C16      1.2896    11.8965    42.9047 C.3   1 PVB  -0.2400 
 35 H161     0.9547    11.4361    41.9752 H     1 PVB   0.0800 
 36 H162     0.4900    11.8461    43.6438 H     1 PVB   0.0800 
 37 H163     2.1643    11.3647    43.2790 H     1 PVB   0.0800 
 38 C14      2.7236    13.4217    41.6213 C.3   1 PVB  -0.2400 
 39 H141     2.3672    12.9901    40.6860 H     1 PVB   0.0800 
 40 H142     3.6003    12.8723    41.9642 H     1 PVB   0.0800 
 41 H143     2.9894    14.4667    41.4612 H     1 PVB   0.0800 
 42 C15     -0.3375    13.4670    40.8807 C.3   1 PVB   0.1200 
 43 H151    -1.3882    13.3576    41.1494 H     1 PVB   0.0800 
 44 H152     0.0921    12.4842    40.6870 H     1 PVB   0.0800 
 45 O1      -0.2539    14.2399    39.6888 O.3   1 PVB  -0.6800 
 46 H1       0.2759    15.0166    39.8830 H     1 PVB   0.4000 
 47 C11      1.1167    20.1488    39.7058 C.3   1 PVB  -0.2400 
 48 H111     1.1080    19.0589    39.7191 H     1 PVB   0.0800 
 49 H112     1.7027    20.4971    38.8553 H     1 PVB   0.0800 
 50 H113     0.0952    20.5193    39.6193 H     1 PVB   0.0800 
 51 C10      3.1365    20.1606    41.0755 C.3   1 PVB  -0.2400 
 52 H101     3.1391    19.0706    41.0736 H     1 PVB   0.0800 
 53 H102     3.5818    20.5234    42.0018 H     1 PVB   0.0800 
 54 H103     3.7142    20.5268    40.2268 H     1 PVB   0.0800 
@<TRIPOS>BOND
  1   1   7  ar  
  2   1   8  ar  
  3   2   3  1   
  4   2   4  1   
  5   2  47  1   
  6   2  51  1   
  7   4   5  1   
  8   4  11  1   
  9   5   6  ar  
 10   5   9  ar  
 11   6   7  ar  
 12   7  28  1   
 13   8   9  ar  
 14   8  13  1   
 15   9  10  1   
 16  10  11  2   
 17  11  12  1   
 18  13  14  1   
 19  13  15  1   
 20  15  16  ar  
 21  15  23  ar  
 22  16  17  1   
 23  16  18  ar  
 24  18  19  1   
 25  18  20  ar  
 26  20  21  ar  
 27  20  25  1   
 28  21  22  1   
 29  21  23  ar  
 30  23  24  1   
 31  25  26  ar  
 32  25  27  ar  
 33  28  29  1   
 34  28  30  1   
 35  30  31  1   
 36  30  32  1   
 37  30  42  1   
 38  32  33  1   
 39  32  34  1   
 40  32  38  1   
 41  34  35  1   
 42  34  36  1   
 43  34  37  1   
 44  38  39  1   
 45  38  40  1   
 46  38  41  1   
 47  42  43  1   
 48  42  44  1   
 49  42  45  1   
 50  45  46  1   
 51  47  48  1   
 52  47  49  1   
 53  47  50  1   
 54  51  52  1   
 55  51  53  1   
 56  51  54  1   
@<TRIPOS>SUBSTRUCTURE
  1 PVB   1 GROUP 4 B **** 0

# MOE 2012.10 (io_trps.svl 2012.10)
