@<TRIPOS>MOLECULE
4-methyl-~{N}-[3-(4-methylimidazol-1-yl)-5-(trifluoromethyl)phenyl]-3-[[4-(3-pyridyl)pyrimidin-2-yl]amino]benzamide
   61    65     0     0     0
SMALL
USER_CHARGES

@<TRIPOS>ATOM
      1 C1        -43.4519  -14.6431  -57.1307 C.ar      1 MOL        -0.1500
      2 C2        -42.8227  -13.6298  -57.8537 C.ar      1 MOL        -0.1500
      3 C3        -39.1128   -4.2918  -58.2222 C.ar      1 MOL        -0.1500
      4 C4        -38.2957   -5.2988  -57.7059 C.ar      1 MOL        -0.1500
      5 C5        -41.4369  -11.3657  -59.3099 C.ar      1 MOL        -0.1500
      6 C6        -41.0359   -5.7265  -57.9800 C.ar      1 MOL        -0.1500
      7 C7        -45.6684   -0.4909  -59.2079 C.ar      1 MOL        -0.1500
      8 C8        -44.8906   -2.5682  -58.2596 C.ar      1 MOL        -0.1500
      9 C9        -43.3957   -1.2347  -59.6069 C.ar      1 MOL        -0.1500
     10 C10       -43.7312  -14.4143  -55.7984 C.ar      1 MOL         0.1600
     11 C11       -40.8296  -10.2450  -59.8366 C.ar      1 MOL         0.1600
     12 C12       -42.8217  -12.3054  -55.8988 C.ar      1 MOL         0.1600
     13 C13       -45.0929    1.8634  -60.9134 C.2       1 MOL        -0.3016
     14 C14       -43.0291    1.2162  -61.2708 C.2       1 MOL         0.0365
     15 C15       -42.4828  -12.4075  -57.2537 C.ar      1 MOL         0.0000
     16 C16       -40.4915   -4.4931  -58.3578 C.ar      1 MOL         0.0862
     17 C17       -38.8354   -6.5298  -57.3144 C.ar      1 MOL        -0.1435
     18 C18       -45.9141   -1.6326  -58.4387 C.ar      1 MOL        -0.1435
     19 C19       -44.4155   -0.2866  -59.8032 C.ar      1 MOL        -0.0230
     20 C20       -40.2171   -6.7519  -57.4684 C.ar      1 MOL         0.1000
     21 C21       -43.6259   -2.3795  -58.8329 C.ar      1 MOL         0.1170
     22 C22       -41.8195  -11.3004  -57.9797 C.ar      1 MOL         0.3100
     23 C23       -44.4367    2.7413  -61.7481 C.2       1 MOL         0.0462
     24 C24       -41.0017   -9.1101  -57.8513 C.ar      1 MOL         0.7200
     25 C25       -41.3107   -3.3657  -58.8984 C.2       1 MOL         0.5438
     26 C26       -37.9286   -7.5905  -56.7555 C.3       1 MOL         0.1435
     27 C27       -44.9540    3.9679  -62.3851 C.3       1 MOL         0.1810
     28 C28       -47.2514   -1.8625  -57.7966 C.3       1 MOL         1.1635
     29 N1        -43.4302  -13.2673  -55.1606 N.ar      1 MOL        -0.6200
     30 N2        -40.6027   -9.1157  -59.1416 N.ar      1 MOL        -0.6200
     31 N3        -43.1486    2.3309  -61.9577 N.2       1 MOL        -0.5653
     32 N4        -41.5978  -10.1724  -57.2559 N.ar      1 MOL        -0.6200
     33 N5        -44.1893    0.8658  -60.6110 N.pl3     1 MOL         0.3262
     34 N6        -40.8054   -7.9632  -57.0673 N.pl3     1 MOL        -0.6000
     35 N7        -42.6601   -3.3853  -58.5685 N.am      1 MOL        -0.5470
     36 O1        -40.7290   -2.4966  -59.5408 O.2       1 MOL        -0.5700
     37 F1        -48.2326   -1.0383  -58.2580 F         1 MOL        -0.3400
     38 F2        -47.7169   -3.1282  -57.9893 F         1 MOL        -0.3400
     39 F3        -47.2154   -1.6780  -56.4480 F         1 MOL        -0.3400
     40 H1        -43.7145  -15.5820  -57.6048 H         1 MOL         0.1500
     41 H2        -42.6125  -13.8253  -58.9015 H         1 MOL         0.1500
     42 H3        -38.6499   -3.3495  -58.5047 H         1 MOL         0.1500
     43 H4        -37.2297   -5.1090  -57.6063 H         1 MOL         0.1500
     44 H5        -41.5849  -12.2351  -59.9367 H         1 MOL         0.1500
     45 H6        -42.1002   -5.9254  -58.0757 H         1 MOL         0.1500
     46 H7        -46.4777    0.2216  -59.3292 H         1 MOL         0.1500
     47 H8        -45.0864   -3.4537  -57.6576 H         1 MOL         0.1500
     48 H9        -42.4277   -1.0819  -60.0633 H         1 MOL         0.1500
     49 H10       -44.2190  -15.1699  -55.1921 H         1 MOL         0.1500
     50 H11       -40.4986  -10.2255  -60.8693 H         1 MOL         0.1500
     51 H12       -42.6044  -11.4085  -55.3241 H         1 MOL         0.1500
     52 H13       -46.1083    1.8809  -60.5444 H         1 MOL         0.1500
     53 H14       -42.1204    0.6321  -61.2327 H         1 MOL         0.1500
     54 H15       -38.3366   -7.9967  -55.8242 H         1 MOL         0.0000
     55 H16       -37.8035   -8.4000  -57.4815 H         1 MOL         0.0000
     56 H17       -36.9379   -7.1863  -56.5224 H         1 MOL         0.0000
     57 H18       -44.6044    4.8546  -61.8492 H         1 MOL         0.0000
     58 H19       -44.6121    4.0316  -63.4231 H         1 MOL         0.0000
     59 H20       -46.0488    3.9773  -62.3925 H         1 MOL         0.0000
     60 H21       -41.1339   -8.0116  -56.1109 H         1 MOL         0.4000
     61 H22       -43.0143   -4.1620  -58.0187 H         1 MOL         0.3700
@<TRIPOS>BOND
     1    1    2 ar
     2    1   10 ar
     3    2   15 ar
     4    3    4 ar
     5    3   16 ar
     6    4   17 ar
     7    5   11 ar
     8    5   22 ar
     9    6   16 ar
    10    6   20 ar
    11    7   18 ar
    12    7   19 ar
    13    8   18 ar
    14    8   21 ar
    15    9   19 ar
    16    9   21 ar
    17   10   29 ar
    18   11   30 ar
    19   12   15 ar
    20   12   29 ar
    21   13   23 2
    22   13   33 1
    23   14   31 2
    24   14   33 1
    25   15   22 1
    26   16   25 1
    27   17   20 ar
    28   17   26 1
    29   18   28 1
    30   19   33 1
    31   20   34 1
    32   21   35 1
    33   22   32 ar
    34   23   27 1
    35   23   31 1
    36   24   30 ar
    37   24   32 ar
    38   24   34 1
    39   25   35 am
    40   25   36 2
    41   28   37 1
    42   28   38 1
    43   28   39 1
    44    1   40 1
    45    2   41 1
    46    3   42 1
    47    4   43 1
    48    5   44 1
    49    6   45 1
    50    7   46 1
    51    8   47 1
    52    9   48 1
    53   10   49 1
    54   11   50 1
    55   12   51 1
    56   13   52 1
    57   14   53 1
    58   26   54 1
    59   26   55 1
    60   26   56 1
    61   27   57 1
    62   27   58 1
    63   27   59 1
    64   34   60 1
    65   35   61 1
