@<TRIPOS>MOLECULE
4-[(4-methylpiperazin-1-yl)methyl]-~{N}-[4-methyl-3-[[4-(3-pyridyl)pyrimidin-2-yl]amino]phenyl]benzamide
   68    72     0     0     0
SMALL
USER_CHARGES

@<TRIPOS>ATOM
      1 C1        -43.4374  -14.5912  -57.1333 C.ar      1 MOL        -0.1500
      2 C2        -42.8075  -13.5734  -57.8491 C.ar      1 MOL        -0.1500
      3 C3        -44.5079   -1.5798  -59.0649 C.ar      1 MOL        -0.1500
      4 C4        -42.3793   -0.9400  -60.0027 C.ar      1 MOL        -0.1500
      5 C5        -45.0526   -0.3539  -59.4570 C.ar      1 MOL        -0.1500
      6 C6        -42.9258    0.2872  -60.3878 C.ar      1 MOL        -0.1500
      7 C7        -38.3051   -5.2585  -57.7449 C.ar      1 MOL        -0.1500
      8 C8        -39.1283   -4.2364  -58.2177 C.ar      1 MOL        -0.1500
      9 C9        -41.4087  -11.3084  -59.2867 C.ar      1 MOL        -0.1500
     10 C10       -41.0604   -5.6390  -57.9129 C.ar      1 MOL        -0.1500
     11 C11       -43.7130  -14.3728  -55.7985 C.ar      1 MOL         0.1600
     12 C12       -40.8031  -10.1853  -59.8088 C.ar      1 MOL         0.1600
     13 C13       -42.8011  -12.2640  -55.8843 C.ar      1 MOL         0.1600
     14 C14       -42.4651  -12.3562  -57.2403 C.ar      1 MOL         0.0000
     15 C15       -43.1668   -1.8843  -59.3364 C.ar      1 MOL         0.0862
     16 C16       -44.2700    0.5904  -60.1297 C.ar      1 MOL        -0.1435
     17 C17       -38.8481   -6.4842  -57.3444 C.ar      1 MOL        -0.1435
     18 C18       -40.5146   -4.4117  -58.3002 C.ar      1 MOL         0.1170
     19 C19       -40.2373   -6.6841  -57.4482 C.ar      1 MOL         0.1000
     20 C20       -41.8024  -11.2445  -57.9597 C.ar      1 MOL         0.3100
     21 C21       -41.0021   -9.0481  -57.8261 C.ar      1 MOL         0.7200
     22 C22       -42.6442   -3.2143  -58.9015 C.2       1 MOL         0.5438
     23 C23       -44.4066    1.9316  -64.3105 C.3       1 MOL         0.2700
     24 C24       -44.3352    4.2104  -63.5075 C.3       1 MOL         0.2700
     25 C25       -44.9721    1.4819  -62.9610 C.3       1 MOL         0.2700
     26 C26       -44.8735    3.7391  -62.1515 C.3       1 MOL         0.2700
     27 C27       -37.9351   -7.5604  -56.8292 C.3       1 MOL         0.1435
     28 C28       -44.1893    3.7516  -65.8684 C.3       1 MOL         0.2700
     29 C29       -44.8757    1.9127  -60.5536 C.3       1 MOL         0.4135
     30 N1        -43.4084  -13.2314  -55.1523 N.ar      1 MOL        -0.6200
     31 N2        -40.5907   -9.0536  -59.1130 N.ar      1 MOL        -0.6200
     32 N3        -41.5949  -10.1143  -57.2344 N.ar      1 MOL        -0.6200
     33 N4        -44.7694    3.3246  -64.5958 N.3       1 MOL        -0.8100
     34 N5        -44.4603    2.3537  -61.8944 N.3       1 MOL        -0.8100
     35 N6        -40.8297   -7.8935  -57.0462 N.pl3     1 MOL        -0.6000
     36 N7        -41.2650   -3.3043  -58.7672 N.am      1 MOL        -0.5470
     37 O1        -43.4604   -4.1039  -58.6810 O.2       1 MOL        -0.5700
     38 H1        -43.7037  -15.5250  -57.6151 H         1 MOL         0.1500
     39 H2        -42.6014  -13.7602  -58.8993 H         1 MOL         0.1500
     40 H3        -45.1519   -2.2854  -58.5458 H         1 MOL         0.1500
     41 H4        -41.3376   -1.1215  -60.2473 H         1 MOL         0.1500
     42 H5        -46.0961   -0.1457  -59.2341 H         1 MOL         0.1500
     43 H6        -42.2877    1.0015  -60.9028 H         1 MOL         0.1500
     44 H7        -37.2334   -5.0849  -57.6855 H         1 MOL         0.1500
     45 H8        -38.6705   -3.2948  -58.5134 H         1 MOL         0.1500
     46 H9        -41.5452  -12.1796  -59.9136 H         1 MOL         0.1500
     47 H10       -42.1283   -5.8253  -57.9581 H         1 MOL         0.1500
     48 H11       -44.2009  -15.1322  -55.1972 H         1 MOL         0.1500
     49 H12       -40.4623  -10.1660  -60.8385 H         1 MOL         0.1500
     50 H13       -42.5803  -11.3723  -55.3032 H         1 MOL         0.1500
     51 H14       -43.3153    1.8027  -64.3103 H         1 MOL         0.0000
     52 H15       -44.8114    1.2750  -65.0899 H         1 MOL         0.0000
     53 H16       -44.7040    5.2267  -63.6917 H         1 MOL         0.0000
     54 H17       -43.2387    4.2639  -63.4630 H         1 MOL         0.0000
     55 H18       -46.0701    1.4907  -62.9857 H         1 MOL         0.0000
     56 H19       -44.6610    0.4434  -62.8023 H         1 MOL         0.0000
     57 H20       -44.4735    4.4025  -61.3753 H         1 MOL         0.0000
     58 H21       -45.9676    3.8331  -62.1276 H         1 MOL         0.0000
     59 H22       -38.3610   -8.0384  -55.9409 H         1 MOL         0.0000
     60 H23       -37.7656   -8.3149  -57.6033 H         1 MOL         0.0000
     61 H24       -36.9670   -7.1452  -56.5300 H         1 MOL         0.0000
     62 H25       -44.5070    4.7709  -66.1129 H         1 MOL         0.0000
     63 H26       -44.5347    3.1069  -66.6840 H         1 MOL         0.0000
     64 H27       -43.0934    3.7255  -65.8518 H         1 MOL         0.0000
     65 H28       -45.9713    1.8634  -60.4993 H         1 MOL         0.0000
     66 H29       -44.5528    2.6496  -59.8064 H         1 MOL         0.0000
     67 H30       -41.1955   -7.9288  -56.1030 H         1 MOL         0.4000
     68 H31       -40.7021   -2.4863  -58.9797 H         1 MOL         0.3700
@<TRIPOS>BOND
     1    1    2 ar
     2    1   11 ar
     3    2   14 ar
     4    3    5 ar
     5    3   15 ar
     6    4    6 ar
     7    4   15 ar
     8    5   16 ar
     9    6   16 ar
    10    7    8 ar
    11    7   17 ar
    12    8   18 ar
    13    9   12 ar
    14    9   20 ar
    15   10   18 ar
    16   10   19 ar
    17   11   30 ar
    18   12   31 ar
    19   13   14 ar
    20   13   30 ar
    21   14   20 1
    22   15   22 1
    23   16   29 1
    24   17   19 ar
    25   17   27 1
    26   18   36 1
    27   19   35 1
    28   20   32 ar
    29   21   31 ar
    30   21   32 ar
    31   21   35 1
    32   22   36 am
    33   22   37 2
    34   23   25 1
    35   23   33 1
    36   24   26 1
    37   24   33 1
    38   25   34 1
    39   26   34 1
    40   28   33 1
    41   29   34 1
    42    1   38 1
    43    2   39 1
    44    3   40 1
    45    4   41 1
    46    5   42 1
    47    6   43 1
    48    7   44 1
    49    8   45 1
    50    9   46 1
    51   10   47 1
    52   11   48 1
    53   12   49 1
    54   13   50 1
    55   23   51 1
    56   23   52 1
    57   24   53 1
    58   24   54 1
    59   25   55 1
    60   25   56 1
    61   26   57 1
    62   26   58 1
    63   27   59 1
    64   27   60 1
    65   27   61 1
    66   28   62 1
    67   28   63 1
    68   28   64 1
    69   29   65 1
    70   29   66 1
    71   35   67 1
    72   36   68 1
