@<TRIPOS>MOLECULE
4-methyl-~{N}-[3-(4-methylimidazol-1-yl)-5-(trifluoromethyl)phenyl]-3-[[4-(3-pyridyl)pyrimidin-2-yl]amino]benzamide
   61    65     0     0     0
SMALL
USER_CHARGES

@<TRIPOS>ATOM
      1 C1        -39.9916  -13.8371  -61.5644 C.ar      1 MOL        -0.2497
      2 C2        -40.8397  -14.7377  -60.9297 C.ar      1 MOL        -0.0689
      3 C3        -42.8518  -13.7930  -55.0678 C.ar      1 MOL        -0.1076
      4 C4        -43.1623  -15.0714  -54.6043 C.ar      1 MOL        -0.1323
      5 C5        -43.2712  -17.3734  -61.7362 C.ar      1 MOL        -0.4094
      6 C6        -43.3787  -14.4825  -57.3226 C.ar      1 MOL        -0.0857
      7 C7        -40.9572   -8.7393  -60.4396 C.ar      1 MOL        -0.1478
      8 C8        -41.1756   -9.8980  -58.3310 C.ar      1 MOL        -0.1645
      9 C9        -41.9768  -10.9283  -60.3641 C.ar      1 MOL        -0.1773
     10 C10       -40.1787  -13.6144  -62.9191 C.ar      1 MOL         0.4043
     11 C11       -44.1134  -18.2018  -61.0229 C.ar      1 MOL         0.4615
     12 C12       -41.9396  -15.0872  -63.0091 C.ar      1 MOL         0.4315
     13 C13       -41.4057   -8.7473  -63.2969 C.2       1 MOL        -0.2484
     14 C14       -42.3343  -10.7446  -63.2263 C.2       1 MOL         0.4179
     15 C15       -41.8349  -15.3791  -61.6587 C.ar      1 MOL        -0.2761
     16 C16       -42.9601  -13.4985  -56.4270 C.ar      1 MOL        -0.1496
     17 C17       -43.5810  -16.0554  -55.5000 C.ar      1 MOL        -0.0273
     18 C18       -40.7630   -8.7821  -59.0590 C.ar      1 MOL        -0.1084
     19 C19       -41.5642   -9.8123  -61.0921 C.ar      1 MOL         0.0653
     20 C20       -43.6892  -15.7609  -56.8591 C.ar      1 MOL         0.1433
     21 C21       -41.7825  -10.9711  -58.9835 C.ar      1 MOL         0.1042
     22 C22       -42.7304  -16.3194  -61.0285 C.ar      1 MOL         0.5378
     23 C23       -41.7965   -9.1647  -64.5473 C.2       1 MOL         0.3180
     24 C24       -43.8214  -16.9615  -59.1405 C.ar      1 MOL         0.8952
     25 C25       -42.6358  -12.1656  -56.9101 C.2       1 MOL         0.6903
     26 C26       -43.9038  -17.4171  -54.9763 C.3       1 MOL        -0.0655
     27 C27       -41.6590   -8.4545  -65.8279 C.3       1 MOL        -0.1179
     28 C28       -40.1134   -7.6352  -58.3614 C.3       1 MOL         0.6863
     29 N1        -41.1343  -14.2184  -63.6605 N.ar      1 MOL        -0.6655
     30 N2        -44.4116  -18.0247  -59.7191 N.ar      1 MOL        -0.7354
     31 N3        -42.3741  -10.4087  -64.4965 N.2       1 MOL        -0.6553
     32 N4        -42.9849  -16.0825  -59.7249 N.ar      1 MOL        -0.7505
     33 N5        -41.7572   -9.7696  -62.4611 N.pl3     1 MOL        -0.1500
     34 N6        -44.1094  -16.7457  -57.7802 N.pl3     1 MOL        -0.7542
     35 N7        -42.2015  -12.1055  -58.2434 N.am      1 MOL        -0.4714
     36 O1        -42.7091  -11.1709  -56.1754 O.2       1 MOL        -0.5843
     37 F1        -39.7614   -6.6139  -59.1975 F         1 MOL        -0.2343
     38 F2        -40.9020   -7.0580  -57.4071 F         1 MOL        -0.2343
     39 F3        -38.9642   -7.9942  -57.7184 F         1 MOL        -0.2343
     40 H1        -39.2092  -13.3246  -61.0166 H         1 MOL         0.1476
     41 H2        -40.7133  -14.9299  -59.8671 H         1 MOL         0.1450
     42 H3        -42.5269  -13.0337  -54.3612 H         1 MOL         0.1353
     43 H4        -43.0758  -15.2902  -53.5433 H         1 MOL         0.1446
     44 H5        -43.0583  -17.5515  -62.7830 H         1 MOL         0.1595
     45 H6        -43.4614  -14.2529  -58.3829 H         1 MOL         0.1655
     46 H7        -40.6339   -7.8666  -61.0034 H         1 MOL         0.1577
     47 H8        -41.0222   -9.9297  -57.2546 H         1 MOL         0.1543
     48 H9        -42.4510  -11.7665  -60.8709 H         1 MOL         0.1882
     49 H10       -39.5430  -12.9213  -63.4608 H         1 MOL         0.0247
     50 H11       -44.5860  -19.0569  -61.4944 H         1 MOL         0.0298
     51 H12       -42.6962  -15.5533  -63.6340 H         1 MOL         0.0338
     52 H13       -40.9269   -7.8427  -62.9462 H         1 MOL         0.1810
     53 H14       -42.7061  -11.6716  -62.8096 H         1 MOL         0.0753
     54 H15       -44.9630  -17.4762  -54.7012 H         1 MOL         0.0563
     55 H16       -43.6930  -18.1894  -55.7258 H         1 MOL         0.0563
     56 H17       -43.2987  -17.6549  -54.0930 H         1 MOL         0.0563
     57 H18       -40.7006   -8.6952  -66.3208 H         1 MOL         0.0493
     58 H19       -42.4683   -8.7080  -66.5368 H         1 MOL         0.0493
     59 H20       -41.7009   -7.3567  -65.7047 H         1 MOL         0.0493
     60 H21       -44.7436  -17.4297  -57.3801 H         1 MOL         0.4662
     61 H22       -42.1851  -12.9908  -58.7437 H         1 MOL         0.3248
@<TRIPOS>BOND
     1    1    2 ar
     2    1   10 ar
     3    2   15 ar
     4    3    4 ar
     5    3   16 ar
     6    4   17 ar
     7    5   11 ar
     8    5   22 ar
     9    6   16 ar
    10    6   20 ar
    11    7   18 ar
    12    7   19 ar
    13    8   18 ar
    14    8   21 ar
    15    9   19 ar
    16    9   21 ar
    17   10   29 ar
    18   11   30 ar
    19   12   15 ar
    20   12   29 ar
    21   13   23 2
    22   13   33 1
    23   14   31 2
    24   14   33 1
    25   15   22 1
    26   16   25 1
    27   17   20 ar
    28   17   26 1
    29   18   28 1
    30   19   33 1
    31   20   34 1
    32   21   35 1
    33   22   32 ar
    34   23   27 1
    35   23   31 1
    36   24   30 ar
    37   24   32 ar
    38   24   34 1
    39   25   35 am
    40   25   36 2
    41   28   37 1
    42   28   38 1
    43   28   39 1
    44    1   40 1
    45    2   41 1
    46    3   42 1
    47    4   43 1
    48    5   44 1
    49    6   45 1
    50    7   46 1
    51    8   47 1
    52    9   48 1
    53   10   49 1
    54   11   50 1
    55   12   51 1
    56   13   52 1
    57   14   53 1
    58   26   54 1
    59   26   55 1
    60   26   56 1
    61   27   57 1
    62   27   58 1
    63   27   59 1
    64   34   60 1
    65   35   61 1
