@<TRIPOS>MOLECULE
3-(2-imidazo[1,2-b]pyridazin-3-ylethynyl)-4-methyl-~{N}-[4-[(4-methylpiperazin-1-yl)methyl]-3-(trifluoromethyl)phenyl]benzamide
   66    70     0     0     0
SMALL
USER_CHARGES

@<TRIPOS>ATOM
      1 C1        -41.0689   -8.9290  -61.1341 C.1       1 MOL        -0.0824
      2 C2        -40.7489   -7.9965  -60.4476 C.1       1 MOL        -0.0641
      3 C3        -42.1912  -12.2359  -63.5049 C.ar      1 MOL        -0.0928
      4 C4        -42.0867  -10.9729  -64.0876 C.ar      1 MOL        -0.1469
      5 C5        -42.4319  -17.2160  -58.9258 C.ar      1 MOL        -0.0989
      6 C6        -42.3001  -16.1246  -59.7843 C.ar      1 MOL        -0.1357
      7 C7        -41.5545  -11.3032  -61.3691 C.ar      1 MOL        -0.0422
      8 C8        -42.7778  -14.6250  -57.9513 C.ar      1 MOL        -0.1519
      9 C9        -39.1033   -6.4342  -59.3382 C.2       1 MOL         0.3660
     10 C10       -41.4500  -10.0402  -61.9518 C.ar      1 MOL         0.0162
     11 C11       -40.3679   -6.8863  -59.6301 C.2       1 MOL        -0.0904
     12 C12       -41.9251  -12.4010  -62.1456 C.ar      1 MOL        -0.1640
     13 C13       -41.7161   -9.8751  -63.3111 C.ar      1 MOL        -0.0177
     14 C14       -42.7367  -17.0119  -57.5800 C.ar      1 MOL        -0.0515
     15 C15       -42.9096  -15.7164  -57.0927 C.ar      1 MOL        -0.1397
     16 C16       -42.4731  -14.8291  -59.2971 C.ar      1 MOL         0.0687
     17 C17       -40.4267   -5.1155  -58.2999 C.2       1 MOL         0.4191
     18 C18       -41.0927   -4.1294  -57.5350 C.2       1 MOL        -0.1548
     19 C19       -42.4297   -4.1260  -57.4828 C.2       1 MOL        -0.2590
     20 C20       -43.1318   -5.1831  -58.2493 C.2       1 MOL         0.3952
     21 C21       -42.0364  -13.7353  -61.5317 C.2       1 MOL         0.6862
     22 C22       -43.9607  -20.8740  -55.4565 C.3       1 MOL         0.1713
     23 C23       -45.6990  -19.5371  -56.4708 C.3       1 MOL         0.1713
     24 C24       -43.0621  -20.6254  -56.6743 C.3       1 MOL         0.1758
     25 C25       -44.7972  -19.2911  -57.6868 C.3       1 MOL         0.1758
     26 C26       -41.6134   -8.5367  -63.9697 C.3       1 MOL        -0.0720
     27 C27       -46.2342  -21.0509  -54.6716 C.3       1 MOL         0.1616
     28 C28       -42.8742  -18.2023  -56.6754 C.3       1 MOL         0.2178
     29 C29       -43.2342  -15.4736  -55.6553 C.3       1 MOL         0.6849
     30 N1        -39.1459   -5.3383  -58.5146 N.2       1 MOL        -0.6481
     31 N2        -42.5755   -6.1100  -58.9653 N.2       1 MOL        -0.4848
     32 N3        -41.2145   -6.0401  -58.9638 N.pl3     1 MOL         0.0695
     33 N4        -45.3781  -20.8194  -55.8333 N.3       1 MOL        -0.7397
     34 N5        -43.3618  -19.3795  -57.3911 N.3       1 MOL        -0.7542
     35 N6        -42.3395  -13.7371  -60.1550 N.am      1 MOL        -0.4697
     36 O1        -41.8396  -14.7536  -62.1914 O.2       1 MOL        -0.5824
     37 F1        -43.3687  -14.1517  -55.3422 F         1 MOL        -0.2397
     38 F2        -44.4016  -16.0568  -55.2545 F         1 MOL        -0.2397
     39 F3        -42.2746  -15.9551  -54.8138 F         1 MOL        -0.2397
     40 H1        -42.4820  -13.0839  -64.1199 H         1 MOL         0.1379
     41 H2        -42.2963  -10.8555  -65.1476 H         1 MOL         0.1431
     42 H3        -42.2962  -18.2217  -59.3152 H         1 MOL         0.1638
     43 H4        -42.0635  -16.2962  -60.8312 H         1 MOL         0.1821
     44 H5        -41.3486  -11.4382  -60.3087 H         1 MOL         0.1676
     45 H6        -42.9129  -13.6149  -57.5703 H         1 MOL         0.1446
     46 H7        -38.1599   -6.8383  -59.6777 H         1 MOL         0.0561
     47 H8        -40.5138   -3.3858  -56.9988 H         1 MOL         0.1708
     48 H9        -43.0037   -3.4031  -56.9195 H         1 MOL         0.1577
     49 H10       -44.2316   -5.1520  -58.1840 H         1 MOL         0.0530
     50 H11       -43.7114  -21.8446  -55.0069 H         1 MOL         0.0366
     51 H12       -43.7460  -20.1026  -54.7072 H         1 MOL         0.0366
     52 H13       -45.5444  -18.7190  -55.7569 H         1 MOL         0.0366
     53 H14       -46.7523  -19.5055  -56.7807 H         1 MOL         0.0366
     54 H15       -41.9973  -20.6430  -56.3537 H         1 MOL         0.0399
     55 H16       -43.1769  -21.4852  -57.3662 H         1 MOL         0.0399
     56 H17       -45.0597  -20.0378  -58.4645 H         1 MOL         0.0399
     57 H18       -45.0427  -18.3015  -58.1311 H         1 MOL         0.0399
     58 H19       -42.5763   -8.0165  -63.9212 H         1 MOL         0.0566
     59 H20       -40.8533   -7.9145  -63.4828 H         1 MOL         0.0566
     60 H21       -41.3206   -8.6361  -65.0217 H         1 MOL         0.0566
     61 H22       -47.2861  -21.0076  -54.9656 H         1 MOL         0.0319
     62 H23       -46.0503  -20.2894  -53.9089 H         1 MOL         0.0319
     63 H24       -46.0292  -22.0348  -54.2411 H         1 MOL         0.0319
     64 H25       -41.9093  -18.4577  -56.2240 H         1 MOL         0.0561
     65 H26       -43.5716  -17.9954  -55.8569 H         1 MOL         0.0561
     66 H27       -42.4803  -12.8143  -59.7280 H         1 MOL         0.3224
@<TRIPOS>BOND
     1    1    2 3
     2    1   10 1
     3    2   11 1
     4    3    4 ar
     5    3   12 ar
     6    4   13 ar
     7    5    6 ar
     8    5   14 ar
     9    6   16 ar
    10    7   10 ar
    11    7   12 ar
    12    8   15 ar
    13    8   16 ar
    14    9   11 2
    15    9   30 1
    16   10   13 ar
    17   11   32 1
    18   12   21 1
    19   13   26 1
    20   14   15 ar
    21   14   28 1
    22   15   29 1
    23   16   35 1
    24   17   18 1
    25   17   30 2
    26   17   32 1
    27   18   19 2
    28   19   20 1
    29   20   31 2
    30   21   35 am
    31   21   36 2
    32   22   24 1
    33   22   33 1
    34   23   25 1
    35   23   33 1
    36   24   34 1
    37   25   34 1
    38   27   33 1
    39   28   34 1
    40   29   37 1
    41   29   38 1
    42   29   39 1
    43   31   32 1
    44    3   40 1
    45    4   41 1
    46    5   42 1
    47    6   43 1
    48    7   44 1
    49    8   45 1
    50    9   46 1
    51   18   47 1
    52   19   48 1
    53   20   49 1
    54   22   50 1
    55   22   51 1
    56   23   52 1
    57   23   53 1
    58   24   54 1
    59   24   55 1
    60   25   56 1
    61   25   57 1
    62   26   58 1
    63   26   59 1
    64   26   60 1
    65   27   61 1
    66   27   62 1
    67   27   63 1
    68   28   64 1
    69   28   65 1
    70   35   66 1
