@<TRIPOS>MOLECULE
~{N}-(3-ethynylphenyl)-6,7-bis(2-methoxyethoxy)quinazolin-4-amine
   52    54     0     0     0
SMALL
USER_CHARGES

@<TRIPOS>ATOM
      1 C1        -38.2980   -6.9175  -56.0520 C.1       1 MOL        -0.1333
      2 C2        -39.2484   -6.4845  -56.6446 C.1       1 MOL        -0.1268
      3 C3        -42.6741   -6.1923  -58.0714 C.ar      1 MOL        -0.1106
      4 C4        -41.5697   -6.6952  -57.3835 C.ar      1 MOL        -0.1283
      5 C5        -42.5881   -4.9632  -58.7253 C.ar      1 MOL        -0.1307
      6 C6        -40.2933   -4.7397  -58.0033 C.ar      1 MOL        -0.1551
      7 C7        -41.0532   -1.3643  -61.6700 C.ar      1 MOL        -0.1186
      8 C8        -43.0031    0.5621  -62.1206 C.ar      1 MOL        -0.2564
      9 C9        -44.1790   -0.9141  -59.0720 C.ar      1 MOL         0.6704
     10 C10       -40.3794   -5.9689  -57.3495 C.ar      1 MOL         0.0467
     11 C11       -42.1256   -1.2137  -60.7737 C.ar      1 MOL        -0.3025
     12 C12       -43.1177   -0.2436  -60.9904 C.ar      1 MOL         0.4581
     13 C13       -41.3977   -4.2369  -58.6912 C.ar      1 MOL         0.1660
     14 C14       -40.9636   -0.5457  -62.7915 C.ar      1 MOL         0.0835
     15 C15       -41.9397    0.4185  -63.0167 C.ar      1 MOL         0.1515
     16 C16       -42.2742   -1.9995  -59.6343 C.ar      1 MOL         0.7169
     17 C17       -36.2655   -1.5806  -65.2951 C.3       1 MOL         0.1162
     18 C18       -40.0578    4.3768  -64.0806 C.3       1 MOL         0.1202
     19 C19       -39.7823   -1.9686  -64.2868 C.3       1 MOL         0.1265
     20 C20       -42.4304    2.5370  -63.9794 C.3       1 MOL         0.1161
     21 C21       -38.5885   -1.9283  -65.2212 C.3       1 MOL         0.1180
     22 C22       -41.7261    3.2675  -62.8523 C.3       1 MOL         0.1233
     23 N1        -44.1478   -0.0911  -60.1398 N.ar      1 MOL        -0.7145
     24 N2        -43.2921   -1.8735  -58.7622 N.ar      1 MOL        -0.7616
     25 N3        -41.3117   -2.9999  -59.3494 N.pl3     1 MOL        -0.7646
     26 O1        -39.9224   -0.6970  -63.6554 O.3       1 MOL        -0.3242
     27 O2        -41.8719    1.2312  -64.1082 O.3       1 MOL        -0.3103
     28 O3        -37.4225   -1.6104  -64.4710 O.3       1 MOL        -0.4209
     29 O4        -40.3364    3.3439  -63.1457 O.3       1 MOL        -0.4269
     30 H1        -37.4551   -7.3011  -55.5263 H         1 MOL         0.1679
     31 H2        -43.6010   -6.7578  -58.0980 H         1 MOL         0.1379
     32 H3        -41.6524   -7.6548  -56.8788 H         1 MOL         0.1416
     33 H4        -43.4548   -4.5808  -59.2584 H         1 MOL         0.1512
     34 H5        -39.3665   -4.1696  -57.9793 H         1 MOL         0.1397
     35 H6        -40.2808   -2.1129  -61.5096 H         1 MOL         0.1429
     36 H7        -43.7579    1.3229  -62.3139 H         1 MOL         0.1673
     37 H8        -45.0114   -0.7861  -58.3907 H         1 MOL         0.0545
     38 H9        -35.3911   -1.3340  -64.6879 H         1 MOL         0.0357
     39 H10       -36.3974   -0.8347  -66.0830 H         1 MOL         0.0357
     40 H11       -36.1261   -2.5652  -65.7477 H         1 MOL         0.0357
     41 H12       -38.9842    4.4069  -64.2824 H         1 MOL         0.0354
     42 H13       -40.3901    5.3358  -63.6752 H         1 MOL         0.0354
     43 H14       -40.5950    4.1702  -65.0093 H         1 MOL         0.0354
     44 H15       -39.6470   -2.7236  -63.5062 H         1 MOL         0.0523
     45 H16       -40.6993   -2.1765  -64.8459 H         1 MOL         0.0523
     46 H17       -42.2981    3.0598  -64.9316 H         1 MOL         0.0609
     47 H18       -43.4972    2.4334  -63.7607 H         1 MOL         0.0609
     48 H19       -38.7169   -1.1626  -65.9926 H         1 MOL         0.0444
     49 H20       -38.4377   -2.9042  -65.6919 H         1 MOL         0.0444
     50 H21       -41.8453    2.7366  -61.9027 H         1 MOL         0.0457
     51 H22       -42.1126    4.2864  -62.7560 H         1 MOL         0.0457
     52 H23       -40.3851   -2.7722  -59.6899 H         1 MOL         0.4489
@<TRIPOS>BOND
     1    1    2 3
     2    2   10 1
     3    3    4 ar
     4    3    5 ar
     5    4   10 ar
     6    5   13 ar
     7    6   10 ar
     8    6   13 ar
     9    7   11 ar
    10    7   14 ar
    11    8   12 ar
    12    8   15 ar
    13    9   23 ar
    14    9   24 ar
    15   11   12 ar
    16   11   16 ar
    17   12   23 ar
    18   13   25 1
    19   14   15 ar
    20   14   26 1
    21   15   27 1
    22   16   24 ar
    23   16   25 1
    24   17   28 1
    25   18   29 1
    26   19   21 1
    27   19   26 1
    28   20   22 1
    29   20   27 1
    30   21   28 1
    31   22   29 1
    32    1   30 1
    33    3   31 1
    34    4   32 1
    35    5   33 1
    36    6   34 1
    37    7   35 1
    38    8   36 1
    39    9   37 1
    40   17   38 1
    41   17   39 1
    42   17   40 1
    43   18   41 1
    44   18   42 1
    45   18   43 1
    46   19   44 1
    47   19   45 1
    48   20   46 1
    49   20   47 1
    50   21   48 1
    51   21   49 1
    52   22   50 1
    53   22   51 1
    54   25   52 1
