@<TRIPOS>MOLECULE
3-(2-imidazo[1,2-b]pyridazin-3-ylethynyl)-4-methyl-~{N}-[4-[(4-methylpiperazin-1-yl)methyl]-3-(trifluoromethyl)phenyl]benzamide
   66    70     0     0     0
SMALL
USER_CHARGES

@<TRIPOS>ATOM
      1 C1        -41.8889   -8.5801  -56.9398 C.1       1 MOL        -0.0824
      2 C2        -41.2800   -7.6833  -57.4559 C.1       1 MOL        -0.0641
      3 C3        -44.0112  -11.7653  -55.1606 C.ar      1 MOL        -0.0928
      4 C4        -44.0628  -10.4955  -54.5856 C.ar      1 MOL        -0.1469
      5 C5        -43.5618  -18.0182  -55.5134 C.ar      1 MOL        -0.0989
      6 C6        -43.5927  -16.6485  -55.2517 C.ar      1 MOL        -0.1357
      7 C7        -42.5633  -10.9190  -56.8997 C.ar      1 MOL        -0.0422
      8 C8        -43.1203  -16.1934  -57.5769 C.ar      1 MOL        -0.1519
      9 C9        -40.6346   -6.1622  -59.3662 C.2       1 MOL         0.3660
     10 C10       -42.6149   -9.6492  -56.3247 C.ar      1 MOL         0.0162
     11 C11       -40.5547   -6.6149  -58.0710 C.2       1 MOL        -0.0904
     12 C12       -43.2615  -11.9771  -56.3176 C.ar      1 MOL        -0.1640
     13 C13       -43.3646   -9.4374  -55.1677 C.ar      1 MOL        -0.0177
     14 C14       -43.3101  -18.4756  -56.8069 C.ar      1 MOL        -0.0515
     15 C15       -43.0893  -17.5631  -57.8387 C.ar      1 MOL        -0.1397
     16 C16       -43.3720  -15.7361  -56.2835 C.ar      1 MOL         0.0687
     17 C17       -39.1707   -4.9214  -58.4249 C.2       1 MOL         0.4191
     18 C18       -38.1852   -3.9884  -58.0259 C.2       1 MOL        -0.1548
     19 C19       -37.7301   -4.0063  -56.7678 C.2       1 MOL        -0.2590
     20 C20       -38.3066   -5.0290  -55.8624 C.2       1 MOL         0.3952
     21 C21       -43.2064  -13.3189  -56.9227 C.2       1 MOL         0.6862
     22 C22       -46.9805  -20.7029  -57.1656 C.3       1 MOL         0.1713
     23 C23       -45.8036  -22.7175  -56.5553 C.3       1 MOL         0.1713
     24 C24       -45.6486  -20.0290  -57.5183 C.3       1 MOL         0.1758
     25 C25       -44.4695  -22.0472  -56.9067 C.3       1 MOL         0.1758
     26 C26       -43.4433   -8.0903  -54.5239 C.3       1 MOL        -0.0720
     27 C27       -46.9940  -22.6103  -58.6715 C.3       1 MOL         0.1616
     28 C28       -43.2815  -19.9545  -57.0642 C.3       1 MOL         0.2178
     29 C29       -42.8175  -18.0295  -59.2312 C.3       1 MOL         0.6849
     30 N1        -39.7759   -5.1143  -59.5794 N.2       1 MOL        -0.6481
     31 N2        -39.2091   -5.9071  -56.1719 N.2       1 MOL        -0.4848
     32 N3        -39.6161   -5.8186  -57.4695 N.pl3     1 MOL         0.0695
     33 N4        -46.9558  -22.1664  -57.2796 N.3       1 MOL        -0.7397
     34 N5        -44.5512  -20.5934  -56.7241 N.3       1 MOL        -0.7542
     35 N6        -43.4031  -14.3661  -56.0212 N.am      1 MOL        -0.4697
     36 O1        -42.9690  -13.4637  -58.1200 O.2       1 MOL        -0.5824
     37 F1        -42.6235  -17.0111  -60.1194 F         1 MOL        -0.2397
     38 F2        -41.7042  -18.8125  -59.3359 F         1 MOL        -0.2397
     39 F3        -43.8401  -18.7737  -59.7425 F         1 MOL        -0.2397
     40 H1        -44.5610  -12.5821  -54.6999 H         1 MOL         0.1379
     41 H2        -44.6504  -10.3413  -53.6844 H         1 MOL         0.1431
     42 H3        -43.7349  -18.7209  -54.7027 H         1 MOL         0.1638
     43 H4        -43.7899  -16.3035  -54.2398 H         1 MOL         0.1821
     44 H5        -41.9793  -11.0905  -57.8020 H         1 MOL         0.1676
     45 H6        -42.9477  -15.4829  -58.3825 H         1 MOL         0.1446
     46 H7        -41.2665   -6.5338  -60.1607 H         1 MOL         0.0561
     47 H8        -37.8082   -3.2677  -58.7429 H         1 MOL         0.1708
     48 H9        -36.9791   -3.3237  -56.3944 H         1 MOL         0.1577
     49 H10       -37.9094   -5.0168  -54.8344 H         1 MOL         0.0530
     50 H11       -47.2433  -20.4188  -56.1255 H         1 MOL         0.0366
     51 H12       -47.7869  -20.2766  -57.8020 H         1 MOL         0.0366
     52 H13       -45.9666  -22.6049  -55.4636 H         1 MOL         0.0366
     53 H14       -45.7211  -23.8125  -56.7315 H         1 MOL         0.0366
     54 H15       -45.7307  -18.9451  -57.3599 H         1 MOL         0.0399
     55 H16       -45.4544  -20.1889  -58.5857 H         1 MOL         0.0399
     56 H17       -43.6683  -22.4758  -56.2896 H         1 MOL         0.0399
     57 H18       -44.2340  -22.2772  -57.9528 H         1 MOL         0.0399
     58 H19       -42.6408   -7.9795  -53.7882 H         1 MOL         0.0566
     59 H20       -43.3518   -7.2943  -55.2702 H         1 MOL         0.0566
     60 H21       -44.4063   -7.9532  -54.0207 H         1 MOL         0.0566
     61 H22       -46.9736  -23.6948  -58.6951 H         1 MOL         0.0319
     62 H23       -46.1302  -22.2116  -59.1936 H         1 MOL         0.0319
     63 H24       -47.9057  -22.2463  -59.1339 H         1 MOL         0.0319
     64 H25       -43.0734  -20.1587  -58.1202 H         1 MOL         0.0561
     65 H26       -42.4946  -20.4402  -56.4777 H         1 MOL         0.0561
     66 H27       -43.5627  -14.1301  -55.0449 H         1 MOL         0.3224
@<TRIPOS>BOND
     1    1    2 3
     2    1   10 1
     3    2   11 1
     4    3    4 ar
     5    3   12 ar
     6    4   13 ar
     7    5    6 ar
     8    5   14 ar
     9    6   16 ar
    10    7   10 ar
    11    7   12 ar
    12    8   15 ar
    13    8   16 ar
    14    9   11 2
    15    9   30 1
    16   10   13 ar
    17   11   32 1
    18   12   21 1
    19   13   26 1
    20   14   15 ar
    21   14   28 1
    22   15   29 1
    23   16   35 1
    24   17   18 1
    25   17   30 2
    26   17   32 1
    27   18   19 2
    28   19   20 1
    29   20   31 2
    30   21   35 am
    31   21   36 2
    32   22   24 1
    33   22   33 1
    34   23   25 1
    35   23   33 1
    36   24   34 1
    37   25   34 1
    38   27   33 1
    39   28   34 1
    40   29   37 1
    41   29   38 1
    42   29   39 1
    43   31   32 1
    44    3   40 1
    45    4   41 1
    46    5   42 1
    47    6   43 1
    48    7   44 1
    49    8   45 1
    50    9   46 1
    51   18   47 1
    52   19   48 1
    53   20   49 1
    54   22   50 1
    55   22   51 1
    56   23   52 1
    57   23   53 1
    58   24   54 1
    59   24   55 1
    60   25   56 1
    61   25   57 1
    62   26   58 1
    63   26   59 1
    64   26   60 1
    65   27   61 1
    66   27   62 1
    67   27   63 1
    68   28   64 1
    69   28   65 1
    70   35   66 1
