@<TRIPOS>MOLECULE
~{N}-(3-chloro-4-fluoro-phenyl)-7-methoxy-6-(3-morpholinopropoxy)quinazolin-4-amine
   55    58     0     0     0
SMALL
USER_CHARGES

@<TRIPOS>ATOM
      1 C1        -41.9023   -6.5627  -57.2098 C.ar      1 MOL        -0.0786
      2 C2        -41.6979   -5.2065  -57.4640 C.ar      1 MOL        -0.1504
      3 C3        -42.1502  -11.4175  -57.8074 C.ar      1 MOL        -0.1130
      4 C4        -43.7227  -12.6592  -55.8835 C.ar      1 MOL        -0.1819
      5 C5        -39.6521   -7.0403  -57.9483 C.ar      1 MOL        -0.1435
      6 C6        -42.8957   -9.5890  -54.2263 C.ar      1 MOL         0.6680
      7 C7        -42.4034  -10.7845  -56.5780 C.ar      1 MOL        -0.2849
      8 C8        -43.1967  -11.4018  -55.5972 C.ar      1 MOL         0.4333
      9 C9        -40.8794   -7.4796  -57.4519 C.ar      1 MOL         0.1157
     10 C10       -42.6883  -12.6741  -58.0667 C.ar      1 MOL         0.0877
     11 C11       -43.4755  -13.2953  -57.1035 C.ar      1 MOL         0.0950
     12 C12       -40.4706   -4.7672  -57.9604 C.ar      1 MOL         0.1283
     13 C13       -39.4477   -5.6841  -58.2026 C.ar      1 MOL        -0.0096
     14 C14       -41.8955   -9.5291  -56.2558 C.ar      1 MOL         0.6927
     15 C15       -41.6779  -11.0442  -62.8716 C.3       1 MOL         0.1373
     16 C16       -39.5907  -12.2440  -62.9234 C.3       1 MOL         0.1373
     17 C17       -40.8986   -9.7394  -63.0087 C.3       1 MOL         0.1276
     18 C18       -38.8605  -10.9108  -63.0581 C.3       1 MOL         0.1276
     19 C19       -43.2330  -15.6562  -56.9524 C.3       1 MOL         0.1191
     20 C20       -41.0065  -14.1982  -60.9574 C.3       1 MOL        -0.0919
     21 C21       -41.5733  -13.3139  -62.0603 C.3       1 MOL         0.1801
     22 C22       -41.0758  -13.5451  -59.5823 C.3       1 MOL         0.1312
     23 N1        -43.4451  -10.8055  -54.4180 N.ar      1 MOL        -0.7055
     24 N2        -42.1245   -8.9037  -55.0857 N.ar      1 MOL        -0.7528
     25 N3        -40.8504  -12.0506  -62.1919 N.3       1 MOL        -0.7374
     26 N4        -41.0860   -8.8444  -57.1961 N.pl3     1 MOL        -0.7173
     27 O1        -39.6853   -9.9579  -63.7297 O.3       1 MOL        -0.4163
     28 O2        -44.0129  -14.5256  -57.3361 O.3       1 MOL        -0.3500
     29 O3        -42.4374  -13.2855  -59.2673 O.3       1 MOL        -0.3428
     30 F1        -40.2893   -3.4607  -58.2003 F         1 MOL        -0.1242
     31 Cl1       -37.9313   -5.1486  -58.8170 Cl        1 MOL        -0.0642
     32 H1        -42.8624   -6.8944  -56.8220 H         1 MOL         0.1696
     33 H2        -42.4947   -4.4931  -57.2757 H         1 MOL         0.1585
     34 H3        -41.5370  -10.9465  -58.5721 H         1 MOL         0.1459
     35 H4        -44.3416  -13.1615  -55.1415 H         1 MOL         0.1707
     36 H5        -38.8571   -7.7587  -58.1363 H         1 MOL         0.1514
     37 H6        -43.0996   -9.1141  -53.2743 H         1 MOL         0.0566
     38 H7        -42.5927  -10.8544  -62.2985 H         1 MOL         0.0402
     39 H8        -41.9685  -11.4015  -63.8681 H         1 MOL         0.0402
     40 H9        -39.7899  -12.6536  -63.9223 H         1 MOL         0.0402
     41 H10       -38.9450  -12.9500  -62.3888 H         1 MOL         0.0402
     42 H11       -41.4919   -9.0090  -63.5682 H         1 MOL         0.0537
     43 H12       -40.6692   -9.3010  -62.0299 H         1 MOL         0.0537
     44 H13       -38.5613  -10.5116  -62.0811 H         1 MOL         0.0537
     45 H14       -37.9516  -11.0419  -63.6539 H         1 MOL         0.0537
     46 H15       -43.7765  -16.5732  -57.1929 H         1 MOL         0.0460
     47 H16       -43.0285  -15.6118  -55.8797 H         1 MOL         0.0460
     48 H17       -42.2890  -15.6401  -57.5023 H         1 MOL         0.0460
     49 H18       -41.5622  -15.1438  -60.9300 H         1 MOL         0.0611
     50 H19       -39.9663  -14.4682  -61.1794 H         1 MOL         0.0611
     51 H20       -41.5017  -13.8243  -63.0257 H         1 MOL         0.0341
     52 H21       -42.6262  -13.0792  -61.8745 H         1 MOL         0.0341
     53 H22       -40.6627  -14.2012  -58.8100 H         1 MOL         0.0501
     54 H23       -40.5303  -12.5960  -59.5736 H         1 MOL         0.0501
     55 H24       -40.5564   -9.4659  -57.7958 H         1 MOL         0.4263
@<TRIPOS>BOND
     1    1    2 ar
     2    1    9 ar
     3    2   12 ar
     4    3    7 ar
     5    3   10 ar
     6    4    8 ar
     7    4   11 ar
     8    5    9 ar
     9    5   13 ar
    10    6   23 ar
    11    6   24 ar
    12    7    8 ar
    13    7   14 ar
    14    8   23 ar
    15    9   26 1
    16   10   11 ar
    17   10   29 1
    18   11   28 1
    19   12   13 ar
    20   12   30 1
    21   13   31 1
    22   14   24 ar
    23   14   26 1
    24   15   17 1
    25   15   25 1
    26   16   18 1
    27   16   25 1
    28   17   27 1
    29   18   27 1
    30   19   28 1
    31   20   21 1
    32   20   22 1
    33   21   25 1
    34   22   29 1
    35    1   32 1
    36    2   33 1
    37    3   34 1
    38    4   35 1
    39    5   36 1
    40    6   37 1
    41   15   38 1
    42   15   39 1
    43   16   40 1
    44   16   41 1
    45   17   42 1
    46   17   43 1
    47   18   44 1
    48   18   45 1
    49   19   46 1
    50   19   47 1
    51   19   48 1
    52   20   49 1
    53   20   50 1
    54   21   51 1
    55   21   52 1
    56   22   53 1
    57   22   54 1
    58   26   55 1
