@<TRIPOS>MOLECULE
~{N}-(2-chloro-6-methyl-phenyl)-2-[[6-[4-(2-hydroxyethyl)piperazin-1-yl]-2-methyl-pyrimidin-4-yl]amino]thiazole-5-carboxamide
   59    62     0     0     0
SMALL
USER_CHARGES

@<TRIPOS>ATOM
      1 C1        -45.9547  -22.4074  -57.5992 C.ar      1 MOL        -0.1287
      2 C2        -46.5340  -21.7028  -56.5440 C.ar      1 MOL        -0.1206
      3 C3        -44.9831  -21.7990  -58.3940 C.ar      1 MOL        -0.1156
      4 C4        -42.6942  -10.7662  -57.5365 C.ar      1 MOL        -0.4498
      5 C5        -43.9712  -15.5728  -54.6205 C.2       1 MOL         0.4038
      6 C6        -46.1418  -20.3898  -56.2836 C.ar      1 MOL        -0.0505
      7 C7        -45.1703  -19.7813  -57.0784 C.ar      1 MOL         0.0591
      8 C8        -44.5910  -20.4860  -58.1336 C.ar      1 MOL        -0.0121
      9 C9        -43.9716  -16.4898  -55.6506 C.2       1 MOL        -0.3015
     10 C10       -42.5373   -9.4683  -57.0947 C.ar      1 MOL         0.6913
     11 C11       -43.0043  -11.6945  -56.5637 C.ar      1 MOL         0.7029
     12 C12       -42.9743  -10.0912  -54.9527 C.ar      1 MOL         0.6974
     13 C13       -43.4844  -14.2140  -56.2718 C.2       1 MOL         0.6643
     14 C14       -44.2161  -17.8926  -55.6306 C.2       1 MOL         0.7225
     15 C15       -42.6564   -7.1133  -57.8701 C.3       1 MOL         0.2004
     16 C16       -41.1378   -8.6701  -59.0094 C.3       1 MOL         0.2004
     17 C17       -41.4431   -6.2639  -57.4654 C.3       1 MOL         0.1686
     18 C18       -39.9427   -7.8146  -58.5805 C.3       1 MOL         0.1686
     19 C19       -46.7812  -19.6626  -55.1451 C.3       1 MOL        -0.0586
     20 C20       -43.1298   -9.7164  -53.5179 C.3       1 MOL        -0.1352
     21 C21       -39.2020   -5.5821  -58.0433 C.3       1 MOL         0.1713
     22 C22       -38.3285   -5.3123  -59.2549 C.3       1 MOL         0.1287
     23 N1        -43.6917  -14.2673  -54.9747 N.2       1 MOL        -0.6461
     24 N2        -42.6706   -9.0941  -55.8053 N.ar      1 MOL        -0.7652
     25 N3        -43.1522  -11.3908  -55.2575 N.ar      1 MOL        -0.7141
     26 N4        -42.2243   -8.5029  -58.0433 N.pl3     1 MOL        -0.7666
     27 N5        -40.3449   -6.4050  -58.4362 N.3       1 MOL        -0.7440
     28 N6        -44.7839  -18.4450  -56.8050 N.am      1 MOL        -0.4686
     29 N7        -43.1738  -13.0391  -56.9756 N.pl3     1 MOL        -0.8342
     30 O1        -43.9822  -18.6110  -54.6284 O.2       1 MOL        -0.5936
     31 O2        -39.0982   -4.6582  -60.2557 O.3       1 MOL        -0.6052
     32 S1        -43.6103  -15.6962  -57.1274 S.3       1 MOL        -0.0611
     33 Cl1       -43.3848  -19.7742  -59.1459 Cl        1 MOL        -0.1016
     34 H1        -46.2595  -23.4301  -57.8013 H         1 MOL         0.1385
     35 H2        -47.2909  -22.1856  -55.9313 H         1 MOL         0.1378
     36 H3        -44.5434  -22.3616  -59.2139 H         1 MOL         0.1483
     37 H4        -42.5813  -11.0387  -58.5796 H         1 MOL         0.1533
     38 H5        -44.1699  -15.8032  -53.5819 H         1 MOL         0.0463
     39 H6        -43.4110   -7.0442  -57.0872 H         1 MOL         0.0520
     40 H7        -43.0811   -6.7345  -58.8003 H         1 MOL         0.0520
     41 H8        -41.4731   -8.3685  -60.0056 H         1 MOL         0.0520
     42 H9        -40.8255   -9.7161  -59.0544 H         1 MOL         0.0520
     43 H10       -41.7632   -5.2164  -57.4112 H         1 MOL         0.0406
     44 H11       -41.1104   -6.5565  -56.4605 H         1 MOL         0.0406
     45 H12       -39.5341   -8.1970  -57.6390 H         1 MOL         0.0406
     46 H13       -39.1641   -7.9057  -59.3431 H         1 MOL         0.0406
     47 H14       -46.2093  -19.8230  -54.2243 H         1 MOL         0.0550
     48 H15       -46.8323  -18.5853  -55.3429 H         1 MOL         0.0550
     49 H16       -47.8097  -20.0075  -54.9836 H         1 MOL         0.0550
     50 H17       -44.1714   -9.4469  -53.3039 H         1 MOL         0.0649
     51 H18       -42.8418  -10.5438  -52.8561 H         1 MOL         0.0649
     52 H19       -42.4892   -8.8637  -53.2568 H         1 MOL         0.0649
     53 H20       -38.6470   -6.1152  -57.2649 H         1 MOL         0.0481
     54 H21       -39.5833   -4.6427  -57.6319 H         1 MOL         0.0481
     55 H22       -37.9643   -6.2563  -59.6720 H         1 MOL         0.0292
     56 H23       -37.4715   -4.6802  -59.0006 H         1 MOL         0.0292
     57 H24       -44.9368  -17.7856  -57.5641 H         1 MOL         0.3237
     58 H25       -43.0440  -13.1724  -57.9717 H         1 MOL         0.4580
     59 H26       -39.8283   -5.2564  -60.4823 H         1 MOL         0.4026
@<TRIPOS>BOND
     1    1    2 ar
     2    1    3 ar
     3    2    6 ar
     4    3    8 ar
     5    4   10 ar
     6    4   11 ar
     7    5    9 2
     8    5   23 1
     9    6    7 ar
    10    6   19 1
    11    7    8 ar
    12    7   28 1
    13    8   33 1
    14    9   14 1
    15    9   32 1
    16   10   24 ar
    17   10   26 1
    18   11   25 ar
    19   11   29 1
    20   12   20 1
    21   12   24 ar
    22   12   25 ar
    23   13   23 2
    24   13   29 1
    25   13   32 1
    26   14   28 am
    27   14   30 2
    28   15   17 1
    29   15   26 1
    30   16   18 1
    31   16   26 1
    32   17   27 1
    33   18   27 1
    34   21   22 1
    35   21   27 1
    36   22   31 1
    37    1   34 1
    38    2   35 1
    39    3   36 1
    40    4   37 1
    41    5   38 1
    42   15   39 1
    43   15   40 1
    44   16   41 1
    45   16   42 1
    46   17   43 1
    47   17   44 1
    48   18   45 1
    49   18   46 1
    50   19   47 1
    51   19   48 1
    52   19   49 1
    53   20   50 1
    54   20   51 1
    55   20   52 1
    56   21   53 1
    57   21   54 1
    58   22   55 1
    59   22   56 1
    60   28   57 1
    61   29   58 1
    62   31   59 1
