@<TRIPOS>MOLECULE
~{N}-(3-ethynylphenyl)-6,7-bis(2-methoxyethoxy)quinazolin-4-amine
   52    54     0     0     0
SMALL
USER_CHARGES

@<TRIPOS>ATOM
      1 C1        -38.0905   -6.8182  -56.2885 C.1       1 MOL        -0.1333
      2 C2        -38.8902   -7.3078  -57.0385 C.1       1 MOL        -0.1268
      3 C3        -40.9471   -7.9247  -60.0791 C.ar      1 MOL        -0.1106
      4 C4        -40.0185   -7.3561  -59.2073 C.ar      1 MOL        -0.1283
      5 C5        -41.6990   -9.0278  -59.6747 C.ar      1 MOL        -0.1307
      6 C6        -40.5936   -8.9937  -57.5267 C.ar      1 MOL        -0.1551
      7 C7        -42.6324  -13.4459  -57.4351 C.ar      1 MOL        -0.1186
      8 C8        -43.5602  -14.1529  -54.9140 C.ar      1 MOL        -0.2564
      9 C9        -43.4552  -10.5796  -54.6368 C.ar      1 MOL         0.6704
     10 C10       -39.8417   -7.8906  -57.9311 C.ar      1 MOL         0.0467
     11 C11       -42.9138  -12.4566  -56.4769 C.ar      1 MOL        -0.3025
     12 C12       -43.3833  -12.8011  -55.1989 C.ar      1 MOL         0.4581
     13 C13       -41.5222   -9.5623  -58.3985 C.ar      1 MOL         0.1660
     14 C14       -42.8181  -14.7892  -57.1234 C.ar      1 MOL         0.0835
     15 C15       -43.2826  -15.1427  -55.8614 C.ar      1 MOL         0.1515
     16 C16       -42.7495  -11.0966  -56.7242 C.ar      1 MOL         0.7169
     17 C17       -43.5858  -17.3800  -62.3871 C.3       1 MOL         0.1162
     18 C18       -46.1920  -19.3527  -56.5457 C.3       1 MOL         0.1202
     19 C19       -42.7157  -15.3790  -59.4250 C.3       1 MOL         0.1265
     20 C20       -44.4968  -16.7410  -54.5860 C.3       1 MOL         0.1161
     21 C21       -43.0755  -16.6169  -60.2238 C.3       1 MOL         0.1180
     22 C22       -45.0824  -18.1063  -54.8910 C.3       1 MOL         0.1233
     23 N1        -43.6553  -11.8631  -54.2748 N.ar      1 MOL        -0.7145
     24 N2        -43.0123  -10.1318  -55.8227 N.ar      1 MOL        -0.7616
     25 N3        -42.2792  -10.6725  -57.9920 N.pl3     1 MOL        -0.7646
     26 O1        -42.5437  -15.7421  -58.0560 O.3       1 MOL        -0.3242
     27 O2        -43.4720  -16.4518  -55.5346 O.3       1 MOL        -0.3103
     28 O3        -43.2670  -16.2515  -61.5851 O.3       1 MOL        -0.4209
     29 O4        -45.6462  -18.0883  -56.1969 O.3       1 MOL        -0.4269
     30 H1        -37.3810   -6.3845  -55.6231 H         1 MOL         0.1679
     31 H2        -41.0848   -7.5085  -61.0728 H         1 MOL         0.1379
     32 H3        -39.4400   -6.4965  -59.5372 H         1 MOL         0.1416
     33 H4        -42.4199   -9.4629  -60.3621 H         1 MOL         0.1512
     34 H5        -40.4589   -9.4140  -56.5318 H         1 MOL         0.1397
     35 H6        -42.2687  -13.1878  -58.4269 H         1 MOL         0.1429
     36 H7        -43.9231  -14.4492  -53.9310 H         1 MOL         0.1673
     37 H8        -43.6762   -9.8289  -53.8878 H         1 MOL         0.0545
     38 H9        -43.7257  -17.0635  -63.4236 H         1 MOL         0.0357
     39 H10       -44.4989  -17.8487  -62.0117 H         1 MOL         0.0357
     40 H11       -42.7628  -18.0968  -62.3354 H         1 MOL         0.0357
     41 H12       -46.6151  -19.3027  -57.5520 H         1 MOL         0.0354
     42 H13       -46.9675  -19.6269  -55.8261 H         1 MOL         0.0354
     43 H14       -45.3966  -20.1014  -56.5242 H         1 MOL         0.0354
     44 H15       -43.5100  -14.6285  -59.4813 H         1 MOL         0.0523
     45 H16       -41.7766  -14.9499  -59.7863 H         1 MOL         0.0523
     46 H17       -44.0526  -16.7168  -53.5862 H         1 MOL         0.0609
     47 H18       -45.2663  -15.9677  -54.6665 H         1 MOL         0.0609
     48 H19       -44.0038  -17.0668  -59.8578 H         1 MOL         0.0444
     49 H20       -42.2664  -17.3516  -60.1767 H         1 MOL         0.0444
     50 H21       -45.8749  -18.3634  -54.1812 H         1 MOL         0.0457
     51 H22       -44.3018  -18.8722  -54.8653 H         1 MOL         0.0457
     52 H23       -42.5433  -11.2957  -58.7458 H         1 MOL         0.4489
@<TRIPOS>BOND
     1    1    2 3
     2    2   10 1
     3    3    4 ar
     4    3    5 ar
     5    4   10 ar
     6    5   13 ar
     7    6   10 ar
     8    6   13 ar
     9    7   11 ar
    10    7   14 ar
    11    8   12 ar
    12    8   15 ar
    13    9   23 ar
    14    9   24 ar
    15   11   12 ar
    16   11   16 ar
    17   12   23 ar
    18   13   25 1
    19   14   15 ar
    20   14   26 1
    21   15   27 1
    22   16   24 ar
    23   16   25 1
    24   17   28 1
    25   18   29 1
    26   19   21 1
    27   19   26 1
    28   20   22 1
    29   20   27 1
    30   21   28 1
    31   22   29 1
    32    1   30 1
    33    3   31 1
    34    4   32 1
    35    5   33 1
    36    6   34 1
    37    7   35 1
    38    8   36 1
    39    9   37 1
    40   17   38 1
    41   17   39 1
    42   17   40 1
    43   18   41 1
    44   18   42 1
    45   18   43 1
    46   19   44 1
    47   19   45 1
    48   20   46 1
    49   20   47 1
    50   21   48 1
    51   21   49 1
    52   22   50 1
    53   22   51 1
    54   25   52 1
