@<TRIPOS>MOLECULE
3-(2-imidazo[1,2-b]pyridazin-3-ylethynyl)-4-methyl-~{N}-[4-[(4-methylpiperazin-1-yl)methyl]-3-(trifluoromethyl)phenyl]benzamide
   66    70     0     0     0
SMALL
USER_CHARGES

@<TRIPOS>ATOM
      1 C1        -38.6216   -7.3851  -56.9752 C.3       1 MOL        -0.0723
      2 C2        -39.6444   -6.4010  -57.4451 C.ar      1 MOL        -0.0176
      3 C3        -39.2829   -5.0568  -57.5354 C.ar      1 MOL        -0.1468
      4 C4        -40.2126   -4.1123  -57.9703 C.ar      1 MOL        -0.0940
      5 C5        -41.5038   -4.5119  -58.3149 C.ar      1 MOL        -0.1618
      6 C6        -41.8653   -5.8561  -58.2245 C.ar      1 MOL        -0.0420
      7 C7        -40.9356   -6.8006  -57.7895 C.ar      1 MOL         0.0164
      8 C8        -41.3309   -8.1736  -57.7040 C.1       1 MOL        -0.0825
      9 C9        -41.6624   -9.3252  -57.6323 C.1       1 MOL        -0.0641
     10 C10       -42.0575  -10.6973  -57.5472 C.2       1 MOL        -0.0914
     11 C11       -42.5874  -11.4967  -58.5316 C.2       1 MOL         0.3663
     12 N1        -42.8391  -12.7606  -58.0625 N.2       1 MOL        -0.6480
     13 C12       -42.4675  -12.7417  -56.7984 C.2       1 MOL         0.4191
     14 N2        -41.9815  -11.4969  -56.4374 N.pl3     1 MOL         0.0705
     15 N3        -41.5124  -11.1206  -55.2145 N.2       1 MOL        -0.4851
     16 C13       -41.5524  -12.0770  -54.3398 C.2       1 MOL         0.3951
     17 C14       -42.0420  -13.4573  -54.5700 C.2       1 MOL        -0.2589
     18 C15       -42.4857  -13.7432  -55.7996 C.2       1 MOL        -0.1550
     19 C16       -42.4852   -3.5132  -58.7722 C.2       1 MOL         0.6838
     20 O1        -43.6890   -3.6776  -58.5855 O.2       1 MOL        -0.5871
     21 N4        -41.9232   -2.3883  -59.3777 N.am      1 MOL        -0.4673
     22 C17       -42.5855   -1.2655  -59.8750 C.ar      1 MOL         0.0680
     23 C18       -41.8570   -0.2257  -60.4528 C.ar      1 MOL        -0.1344
     24 C19       -42.5187    0.8971  -60.9502 C.ar      1 MOL        -0.0994
     25 C20       -43.9087    0.9801  -60.8696 C.ar      1 MOL        -0.0501
     26 C21       -44.6371   -0.0597  -60.2917 C.ar      1 MOL        -0.1416
     27 C22       -43.9755   -1.1825  -59.7943 C.ar      1 MOL        -0.1511
     28 C23       -46.1260    0.0073  -60.1941 C.3       1 MOL         0.6865
     29 F1        -46.6556    1.1530  -60.7141 F         1 MOL        -0.2397
     30 F2        -46.7609   -1.0091  -60.8477 F         1 MOL        -0.2397
     31 F3        -46.5688   -0.0508  -58.9052 F         1 MOL        -0.2397
     32 C24       -44.5986    2.1985  -61.4115 C.3       1 MOL         0.2180
     33 N5        -43.6507    3.1607  -61.9701 N.3       1 MOL        -0.7545
     34 C25       -44.2274    4.5106  -61.9879 C.3       1 MOL         0.1761
     35 C26       -43.2356    5.5200  -62.5762 C.3       1 MOL         0.1706
     36 N6        -42.8247    5.1211  -63.9278 N.3       1 MOL        -0.7381
     37 C27       -42.2470    3.7717  -63.9102 C.3       1 MOL         0.1706
     38 C28       -43.2378    2.7616  -63.3212 C.3       1 MOL         0.1761
     39 C29       -41.8782    6.0837  -64.4880 C.3       1 MOL         0.1605
     40 H1        -38.0609   -7.7787  -57.8285 H         1 MOL         0.0566
     41 H2        -37.9205   -6.9168  -56.2765 H         1 MOL         0.0566
     42 H3        -39.0955   -8.2197  -56.4476 H         1 MOL         0.0566
     43 H4        -38.2794   -4.7347  -57.2700 H         1 MOL         0.1432
     44 H5        -39.9195   -3.0678  -58.0392 H         1 MOL         0.1375
     45 H6        -42.8746   -6.1620  -58.4938 H         1 MOL         0.1679
     46 H7        -42.8018  -11.2313  -59.5574 H         1 MOL         0.0564
     47 H8        -41.1954  -11.8750  -53.3168 H         1 MOL         0.0530
     48 H9        -42.0265  -14.1726  -53.7592 H         1 MOL         0.1578
     49 H10       -42.8585  -14.7326  -56.0396 H         1 MOL         0.1707
     50 H11       -40.9100   -2.3443  -59.4529 H         1 MOL         0.3231
     51 H12       -40.7734   -0.2795  -60.5211 H         1 MOL         0.1828
     52 H13       -41.9420    1.7019  -61.3985 H         1 MOL         0.1643
     53 H14       -44.5448   -1.9926  -59.3437 H         1 MOL         0.1445
     54 H15       -45.3047    1.9227  -62.2024 H         1 MOL         0.0558
     55 H16       -45.1700    2.7076  -60.6283 H         1 MOL         0.0558
     56 H17       -45.1611    4.5303  -62.5663 H         1 MOL         0.0396
     57 H18       -44.4709    4.8228  -60.9650 H         1 MOL         0.0396
     58 H19       -43.7235    6.5017  -62.6118 H         1 MOL         0.0368
     59 H20       -42.3649    5.6119  -61.9127 H         1 MOL         0.0368
     60 H21       -42.0036    3.4594  -64.9330 H         1 MOL         0.0368
     61 H22       -41.3130    3.7527  -63.3320 H         1 MOL         0.0368
     62 H23       -44.1080    2.6683  -63.9852 H         1 MOL         0.0396
     63 H24       -42.7490    1.7804  -63.2846 H         1 MOL         0.0396
     64 H25       -41.5959    5.7598  -65.4843 H         1 MOL         0.0322
     65 H26       -41.0012    6.1293  -63.8504 H         1 MOL         0.0322
     66 H27       -42.3518    7.0589  -64.5352 H         1 MOL         0.0322
@<TRIPOS>BOND
     1    1    2 1
     2    2    7 ar
     3    2    3 ar
     4    3    4 ar
     5    4    5 ar
     6    5    6 ar
     7    6    7 ar
     8    7    8 1
     9    8    9 3
    10    9   10 1
    11   10   14 1
    12   10   11 2
    13   11   12 1
    14   12   13 2
    15   13   18 1
    16   13   14 1
    17   14   15 1
    18   15   16 2
    19   16   17 1
    20   17   18 2
    21    5   19 1
    22   19   20 2
    23   19   21 am
    24   21   22 1
    25   22   27 ar
    26   22   23 ar
    27   23   24 ar
    28   24   25 ar
    29   25   26 ar
    30   26   27 ar
    31   26   28 1
    32   28   29 1
    33   28   30 1
    34   28   31 1
    35   25   32 1
    36   32   33 1
    37   33   38 1
    38   33   34 1
    39   34   35 1
    40   35   36 1
    41   36   37 1
    42   37   38 1
    43   36   39 1
    44    1   40 1
    45    1   41 1
    46    1   42 1
    47    3   43 1
    48    4   44 1
    49    6   45 1
    50   11   46 1
    51   16   47 1
    52   17   48 1
    53   18   49 1
    54   21   50 1
    55   23   51 1
    56   24   52 1
    57   27   53 1
    58   32   54 1
    59   32   55 1
    60   34   56 1
    61   34   57 1
    62   35   58 1
    63   35   59 1
    64   37   60 1
    65   37   61 1
    66   38   62 1
    67   38   63 1
    68   39   64 1
    69   39   65 1
    70   39   66 1
