@<TRIPOS>MOLECULE
~{N}-(3-chloro-4-fluoro-phenyl)-7-methoxy-6-(3-morpholinopropoxy)quinazolin-4-amine
   55    58     0     0     0
SMALL
USER_CHARGES

@<TRIPOS>ATOM
      1 C1        -45.7347    0.2315  -62.9848 C.3       1 MOL         0.1191
      2 O1        -44.7807    0.8520  -62.1309 O.3       1 MOL        -0.3500
      3 C2        -44.1190    0.0409  -61.2587 C.ar      1 MOL         0.0950
      4 C3        -44.6549   -0.1788  -59.9863 C.ar      1 MOL        -0.1819
      5 C4        -44.0174   -0.9990  -59.0586 C.ar      1 MOL         0.4333
      6 C5        -42.8094   -1.6049  -59.4405 C.ar      1 MOL        -0.2848
      7 C6        -42.2640   -1.3890  -60.7180 C.ar      1 MOL        -0.1130
      8 C7        -42.9224   -0.5648  -61.6253 C.ar      1 MOL         0.0878
      9 O2        -42.3853   -0.3587  -62.8686 O.3       1 MOL        -0.3428
     10 C8        -41.0905    0.2259  -62.9174 C.3       1 MOL         0.1312
     11 C9        -40.9664    1.0360  -64.2022 C.3       1 MOL        -0.0919
     12 C10       -41.9960    2.1543  -64.2967 C.3       1 MOL         0.1801
     13 N1        -41.8827    3.1138  -63.2002 N.3       1 MOL        -0.7374
     14 C11       -40.7570    4.0314  -63.4240 C.3       1 MOL         0.1373
     15 C12       -40.6665    5.0297  -62.2734 C.3       1 MOL         0.1276
     16 O3        -41.8877    5.7598  -62.1514 O.3       1 MOL        -0.4163
     17 C13       -42.9832    4.8783  -61.9016 C.3       1 MOL         0.1276
     18 C14       -43.1295    3.8755  -63.0425 C.3       1 MOL         0.1373
     19 C15       -42.2020   -2.4172  -58.4870 C.ar      1 MOL         0.6927
     20 N2        -42.7053   -2.6386  -57.2581 N.ar      1 MOL        -0.7527
     21 C16       -43.8633   -2.0075  -57.0055 C.ar      1 MOL         0.6680
     22 N3        -44.5480   -1.1988  -57.8395 N.ar      1 MOL        -0.7054
     23 N4        -40.9799   -3.0626  -58.8005 N.pl3     1 MOL        -0.7172
     24 C17       -40.4116   -4.2733  -58.3739 C.ar      1 MOL         0.1157
     25 C18       -39.0247   -4.4073  -58.3080 C.ar      1 MOL        -0.0785
     26 C19       -38.4596   -5.6099  -57.8837 C.ar      1 MOL        -0.1505
     27 C20       -39.2813   -6.6786  -57.5254 C.ar      1 MOL         0.1285
     28 C21       -40.6682   -6.5446  -57.5914 C.ar      1 MOL        -0.0092
     29 C22       -41.2333   -5.3420  -58.0157 C.ar      1 MOL        -0.1435
     30 Cl1       -41.6876   -7.8607  -57.1525 Cl        1 MOL        -0.0648
     31 F1        -38.7232   -7.8286  -57.1208 F         1 MOL        -0.1242
     32 H1        -46.1915    0.9853  -63.6307 H         1 MOL         0.0460
     33 H2        -46.5018   -0.2587  -62.3800 H         1 MOL         0.0460
     34 H3        -45.2278   -0.5146  -63.6013 H         1 MOL         0.0460
     35 H4        -45.5932    0.3042  -59.7174 H         1 MOL         0.1707
     36 H5        -41.3292   -1.8543  -61.0217 H         1 MOL         0.1459
     37 H6        -40.3483   -0.5775  -62.8815 H         1 MOL         0.0501
     38 H7        -40.9655    0.8668  -62.0388 H         1 MOL         0.0501
     39 H8        -41.0840    0.3621  -65.0599 H         1 MOL         0.0611
     40 H9        -39.9503    1.4433  -64.2781 H         1 MOL         0.0611
     41 H10       -41.8580    2.7149  -65.2265 H         1 MOL         0.0341
     42 H11       -43.0146    1.7534  -64.2868 H         1 MOL         0.0341
     43 H12       -39.8164    3.4720  -63.4836 H         1 MOL         0.0402
     44 H13       -40.8909    4.5745  -64.3687 H         1 MOL         0.0402
     45 H14       -40.4408    4.5326  -61.3219 H         1 MOL         0.0537
     46 H15       -39.8662    5.7509  -62.4674 H         1 MOL         0.0537
     47 H16       -42.8364    4.3755  -60.9380 H         1 MOL         0.0537
     48 H17       -43.8897    5.4871  -61.8231 H         1 MOL         0.0537
     49 H18       -43.9622    3.1992  -62.8178 H         1 MOL         0.0402
     50 H19       -43.3673    4.4115  -63.9705 H         1 MOL         0.0402
     51 H20       -44.2961   -2.1644  -56.0250 H         1 MOL         0.0566
     52 H21       -40.4115   -2.5441  -59.4596 H         1 MOL         0.4263
     53 H22       -38.3749   -3.5811  -58.5850 H         1 MOL         0.1696
     54 H23       -37.3798   -5.7132  -57.8314 H         1 MOL         0.1585
     55 H24       -42.3147   -5.2340  -58.0680 H         1 MOL         0.1513
@<TRIPOS>BOND
     1    1    2 1
     2    2    3 1
     3    3    8 ar
     4    3    4 ar
     5    4    5 ar
     6    5   22 ar
     7    5    6 ar
     8    6    7 ar
     9    7    8 ar
    10    8    9 1
    11    9   10 1
    12   10   11 1
    13   11   12 1
    14   12   13 1
    15   13   18 1
    16   13   14 1
    17   14   15 1
    18   15   16 1
    19   16   17 1
    20   17   18 1
    21    6   19 ar
    22   19   20 ar
    23   20   21 ar
    24   21   22 ar
    25   19   23 1
    26   23   24 1
    27   24   29 ar
    28   24   25 ar
    29   25   26 ar
    30   26   27 ar
    31   27   28 ar
    32   28   29 ar
    33   28   30 1
    34   27   31 1
    35    1   32 1
    36    1   33 1
    37    1   34 1
    38    4   35 1
    39    7   36 1
    40   10   37 1
    41   10   38 1
    42   11   39 1
    43   11   40 1
    44   12   41 1
    45   12   42 1
    46   14   43 1
    47   14   44 1
    48   15   45 1
    49   15   46 1
    50   17   47 1
    51   17   48 1
    52   18   49 1
    53   18   50 1
    54   21   51 1
    55   23   52 1
    56   25   53 1
    57   26   54 1
    58   29   55 1
