@<TRIPOS>MOLECULE
4-[(4-methylpiperazin-1-yl)methyl]-~{N}-[4-methyl-3-[[4-(3-pyridyl)pyrimidin-2-yl]amino]phenyl]benzamide
   68    72     0     0     0
SMALL
USER_CHARGES

@<TRIPOS>ATOM
      1 C1        -42.1512    2.1626  -66.8823 C.ar      1 MOL        -0.4096
      2 C2        -41.9220    1.8373  -65.5610 C.ar      1 MOL         0.5364
      3 C3        -40.6217    1.3970  -65.1155 C.ar      1 MOL        -0.2734
      4 C4        -39.9215    2.0989  -64.1476 C.ar      1 MOL         0.4309
      5 N1        -38.7018    1.7412  -63.6872 N.ar      1 MOL        -0.6657
      6 C5        -38.1606    0.6253  -64.2253 C.ar      1 MOL         0.4039
      7 C6        -38.7784   -0.1458  -65.1967 C.ar      1 MOL        -0.2505
      8 C7        -40.0323    0.2544  -65.6450 C.ar      1 MOL        -0.0710
      9 N2        -42.8658    1.9001  -64.5989 N.ar      1 MOL        -0.7479
     10 C8        -44.0779    2.3106  -65.0181 C.ar      1 MOL         0.8872
     11 N3        -45.0889    2.3880  -64.0394 N.pl3     1 MOL        -0.7210
     12 C9        -45.1026    2.1152  -62.6538 C.ar      1 MOL         0.1769
     13 C10       -45.9594    2.8084  -61.7987 C.ar      1 MOL        -0.1445
     14 C11       -45.9596    2.5266  -60.4326 C.ar      1 MOL        -0.0883
     15 C12       -45.1029    1.5517  -59.9215 C.ar      1 MOL        -0.1675
     16 C13       -44.2461    0.8585  -60.7765 C.ar      1 MOL         0.0850
     17 C14       -44.2459    1.1403  -62.1426 C.ar      1 MOL        -0.1858
     18 N4        -43.3757   -0.1324  -60.2565 N.am      1 MOL        -0.4693
     19 C15       -42.4593   -0.9178  -60.9575 C.2       1 MOL         0.6834
     20 C16       -41.7408   -1.8794  -60.1365 C.ar      1 MOL        -0.1523
     21 C17       -41.5400   -1.6252  -58.7797 C.ar      1 MOL        -0.0932
     22 C18       -40.8509   -2.5473  -57.9919 C.ar      1 MOL        -0.1272
     23 C19       -40.3626   -3.7236  -58.5609 C.ar      1 MOL        -0.0601
     24 C20       -40.5634   -3.9777  -59.9177 C.ar      1 MOL        -0.1272
     25 C21       -41.2525   -3.0556  -60.7054 C.ar      1 MOL        -0.0932
     26 C22       -39.6192   -4.7150  -57.7132 C.3       1 MOL         0.2172
     27 N5        -40.0597   -6.0862  -57.9618 N.3       1 MOL        -0.7468
     28 C23       -41.3446   -6.3488  -57.3020 C.3       1 MOL         0.1757
     29 C24       -41.8062   -7.7873  -57.5594 C.3       1 MOL         0.1707
     30 N6        -40.7933   -8.7493  -57.1084 N.3       1 MOL        -0.7389
     31 C25       -39.5086   -8.4876  -57.7689 C.3       1 MOL         0.1707
     32 C26       -39.0465   -7.0489  -57.5128 C.3       1 MOL         0.1757
     33 C27       -41.2337  -10.1209  -57.3549 C.3       1 MOL         0.1608
     34 O1        -42.2722   -0.8572  -62.1708 O.2       1 MOL        -0.5869
     35 C28       -46.8874    3.8575  -62.3190 C.3       1 MOL        -0.0528
     36 N7        -44.4270    2.6545  -66.2724 N.ar      1 MOL        -0.7391
     37 C29       -43.4353    2.5687  -67.1831 C.ar      1 MOL         0.4615
     38 H1        -41.3838    2.1077  -67.6444 H         1 MOL         0.1590
     39 H2        -40.3264    2.9990  -63.6938 H         1 MOL         0.0333
     40 H3        -37.1815    0.3561  -63.8428 H         1 MOL         0.0248
     41 H4        -38.2991   -1.0329  -65.5947 H         1 MOL         0.1463
     42 H5        -40.5379   -0.3335  -66.4071 H         1 MOL         0.1439
     43 H6        -45.9849    2.7012  -64.4025 H         1 MOL         0.4543
     44 H7        -46.6236    3.0611  -59.7583 H         1 MOL         0.1366
     45 H8        -45.1115    1.3401  -58.8552 H         1 MOL         0.1764
     46 H9        -43.5772    0.5996  -62.8093 H         1 MOL         0.1535
     47 H10       -43.4249   -0.2897  -59.2529 H         1 MOL         0.3223
     48 H11       -41.9164   -0.7121  -58.3256 H         1 MOL         0.1468
     49 H12       -40.6989   -2.3406  -56.9358 H         1 MOL         0.1451
     50 H13       -40.1862   -4.8913  -60.3691 H         1 MOL         0.1451
     51 H14       -41.4033   -3.2641  -61.7614 H         1 MOL         0.1468
     52 H15       -38.5434   -4.6647  -57.9141 H         1 MOL         0.0432
     53 H16       -39.7612   -4.5057  -56.6478 H         1 MOL         0.0432
     54 H17       -41.2730   -6.1720  -56.2202 H         1 MOL         0.0377
     55 H18       -42.1086   -5.6664  -57.6940 H         1 MOL         0.0377
     56 H19       -42.7427   -7.9516  -57.0125 H         1 MOL         0.0373
     57 H20       -42.0245   -7.9196  -58.6279 H         1 MOL         0.0373
     58 H21       -38.7446   -9.1699  -57.3768 H         1 MOL         0.0373
     59 H22       -39.5807   -8.6651  -58.8506 H         1 MOL         0.0373
     60 H23       -38.8266   -6.9167  -56.4446 H         1 MOL         0.0377
     61 H24       -38.1107   -6.8847  -58.0608 H         1 MOL         0.0377
     62 H25       -40.4643  -10.8042  -57.0110 H         1 MOL         0.0323
     63 H26       -41.3987  -10.2534  -58.4193 H         1 MOL         0.0323
     64 H27       -42.1569  -10.2987  -56.8130 H         1 MOL         0.0323
     65 H28       -47.8478    3.4096  -62.5983 H         1 MOL         0.0438
     66 H29       -47.0690    4.6339  -61.5660 H         1 MOL         0.0438
     67 H30       -46.4652    4.3581  -63.1990 H         1 MOL         0.0438
     68 H31       -43.7107    2.8453  -68.1952 H         1 MOL         0.0273
@<TRIPOS>BOND
     1    1   37 ar
     2    1    2 ar
     3    2    3 1
     4    3    8 ar
     5    3    4 ar
     6    4    5 ar
     7    5    6 ar
     8    6    7 ar
     9    7    8 ar
    10    2    9 ar
    11    9   10 ar
    12   10   11 1
    13   11   12 1
    14   12   17 ar
    15   12   13 ar
    16   13   14 ar
    17   14   15 ar
    18   15   16 ar
    19   16   17 ar
    20   16   18 1
    21   18   19 am
    22   19   20 1
    23   20   25 ar
    24   20   21 ar
    25   21   22 ar
    26   22   23 ar
    27   23   24 ar
    28   24   25 ar
    29   23   26 1
    30   26   27 1
    31   27   32 1
    32   27   28 1
    33   28   29 1
    34   29   30 1
    35   30   31 1
    36   31   32 1
    37   30   33 1
    38   19   34 2
    39   13   35 1
    40   10   36 ar
    41   36   37 ar
    42    1   38 1
    43    4   39 1
    44    6   40 1
    45    7   41 1
    46    8   42 1
    47   11   43 1
    48   14   44 1
    49   15   45 1
    50   17   46 1
    51   18   47 1
    52   21   48 1
    53   22   49 1
    54   24   50 1
    55   25   51 1
    56   26   52 1
    57   26   53 1
    58   28   54 1
    59   28   55 1
    60   29   56 1
    61   29   57 1
    62   31   58 1
    63   31   59 1
    64   32   60 1
    65   32   61 1
    66   33   62 1
    67   33   63 1
    68   33   64 1
    69   35   65 1
    70   35   66 1
    71   35   67 1
    72   37   68 1
