@<TRIPOS>MOLECULE
4-methyl-~{N}-[3-(4-methylimidazol-1-yl)-5-(trifluoromethyl)phenyl]-3-[[4-(3-pyridyl)pyrimidin-2-yl]amino]benzamide
   61    65     0     0     0
SMALL
USER_CHARGES

@<TRIPOS>ATOM
      1 C1        -39.9672    3.3982  -66.3877 C.3       1 MOL        -0.0655
      2 C2        -40.0997    2.3930  -65.2901 C.ar      1 MOL        -0.0274
      3 C3        -39.3308    1.2304  -65.3454 C.ar      1 MOL        -0.1322
      4 C4        -39.4353    0.2764  -64.3332 C.ar      1 MOL        -0.1077
      5 C5        -40.3087    0.4849  -63.2657 C.ar      1 MOL        -0.1496
      6 C6        -41.0776    1.6474  -63.2105 C.ar      1 MOL        -0.0857
      7 C7        -40.9731    2.6014  -64.2228 C.ar      1 MOL         0.1433
      8 N1        -41.7586    3.7730  -64.1504 N.pl3     1 MOL        -0.7541
      9 C8        -43.0230    4.0383  -63.5929 C.ar      1 MOL         0.8957
     10 N2        -43.4790    5.3001  -63.7093 N.ar      1 MOL        -0.7362
     11 C9        -44.6934    5.5192  -63.1638 C.ar      1 MOL         0.4624
     12 C10       -45.4356    4.5446  -62.5285 C.ar      1 MOL        -0.4097
     13 C11       -44.8571    3.2929  -62.4760 C.ar      1 MOL         0.5376
     14 N3        -43.6480    3.0033  -62.9999 N.ar      1 MOL        -0.7507
     15 C12       -45.5306    2.1859  -61.8402 C.ar      1 MOL        -0.2761
     16 C13       -45.3268    0.8797  -62.2710 C.ar      1 MOL        -0.0688
     17 C14       -45.9893   -0.1664  -61.6385 C.ar      1 MOL        -0.2496
     18 C15       -46.8383    0.1442  -60.5885 C.ar      1 MOL         0.4042
     19 N4        -47.0617    1.4005  -60.1420 N.ar      1 MOL        -0.6654
     20 C16       -46.4003    2.3912  -60.7813 C.ar      1 MOL         0.4314
     21 C17       -40.4163   -0.5101  -62.2105 C.2       1 MOL         0.6902
     22 O1        -39.4663   -1.2464  -61.9103 O.2       1 MOL        -0.5844
     23 N5        -41.6513   -0.5395  -61.5443 N.am      1 MOL        -0.4713
     24 C18       -42.0482   -1.3618  -60.4598 C.ar      1 MOL         0.1042
     25 C19       -42.9870   -0.8964  -59.5390 C.ar      1 MOL        -0.1645
     26 C20       -43.3785   -1.7057  -58.4725 C.ar      1 MOL        -0.1085
     27 C21       -42.8311   -2.9804  -58.3267 C.ar      1 MOL        -0.1478
     28 C22       -41.8923   -3.4457  -59.2474 C.ar      1 MOL         0.0653
     29 C23       -41.5008   -2.6364  -60.3139 C.ar      1 MOL        -0.1773
     30 N6        -41.3495   -4.7094  -59.1027 N.pl3     1 MOL        -0.1500
     31 C24       -40.4223   -5.3128  -59.9150 C.2       1 MOL        -0.2484
     32 C25       -40.1130   -6.5743  -59.4637 C.2       1 MOL         0.3179
     33 N7        -40.8761   -6.7417  -58.3426 N.2       1 MOL        -0.6553
     34 C26       -41.6019   -5.5965  -58.1661 C.2       1 MOL         0.4180
     35 C27       -39.1971   -7.5930  -59.9771 C.3       1 MOL        -0.1179
     36 C28       -44.3822   -1.2082  -57.4883 C.3       1 MOL         0.6864
     37 F1        -44.8315    0.0541  -57.7548 F         1 MOL        -0.2342
     38 F2        -45.5077   -1.9789  -57.4177 F         1 MOL        -0.2342
     39 F3        -43.8910   -1.1604  -56.2157 F         1 MOL        -0.2342
     40 H1        -39.1837    4.1211  -66.1408 H         1 MOL         0.0563
     41 H2        -39.7139    2.9113  -67.3352 H         1 MOL         0.0563
     42 H3        -40.9091    3.9354  -66.5415 H         1 MOL         0.0563
     43 H4        -38.6474    1.0592  -66.1728 H         1 MOL         0.1446
     44 H5        -38.8297   -0.6249  -64.3858 H         1 MOL         0.1353
     45 H6        -41.7584    1.8101  -62.3776 H         1 MOL         0.1655
     46 H7        -41.3238    4.5793  -64.5873 H         1 MOL         0.4665
     47 H8        -45.0659    6.5340  -63.2546 H         1 MOL         0.0298
     48 H9        -46.4075    4.7630  -62.1038 H         1 MOL         0.1595
     49 H10       -44.6549    0.6622  -63.0976 H         1 MOL         0.1450
     50 H11       -45.8469   -1.1925  -61.9573 H         1 MOL         0.1476
     51 H12       -47.3784   -0.6361  -60.0618 H         1 MOL         0.0246
     52 H13       -46.6034    3.3872  -60.3980 H         1 MOL         0.0337
     53 H14       -42.3584    0.1263  -61.8458 H         1 MOL         0.3248
     54 H15       -43.4159    0.0970  -59.6516 H         1 MOL         0.1543
     55 H16       -43.1388   -3.6087  -57.4934 H         1 MOL         0.1577
     56 H17       -40.7691   -2.9980  -61.0338 H         1 MOL         0.1882
     57 H18       -40.0422   -4.7810  -60.7783 H         1 MOL         0.1810
     58 H19       -42.2947   -5.4623  -57.3446 H         1 MOL         0.0752
     59 H20       -38.1828   -7.4874  -59.5462 H         1 MOL         0.0493
     60 H21       -39.5377   -8.6241  -59.7550 H         1 MOL         0.0493
     61 H22       -39.0869   -7.5515  -61.0793 H         1 MOL         0.0493
@<TRIPOS>BOND
     1    1    2 1
     2    2    7 ar
     3    2    3 ar
     4    3    4 ar
     5    4    5 ar
     6    5    6 ar
     7    6    7 ar
     8    7    8 1
     9    8    9 1
    10    9   14 ar
    11    9   10 ar
    12   10   11 ar
    13   11   12 ar
    14   12   13 ar
    15   13   14 ar
    16   13   15 1
    17   15   20 ar
    18   15   16 ar
    19   16   17 ar
    20   17   18 ar
    21   18   19 ar
    22   19   20 ar
    23    5   21 1
    24   21   22 2
    25   21   23 am
    26   23   24 1
    27   24   29 ar
    28   24   25 ar
    29   25   26 ar
    30   26   27 ar
    31   27   28 ar
    32   28   29 ar
    33   28   30 1
    34   30   34 1
    35   30   31 1
    36   31   32 2
    37   32   33 1
    38   33   34 2
    39   32   35 1
    40   26   36 1
    41   36   37 1
    42   36   38 1
    43   36   39 1
    44    1   40 1
    45    1   41 1
    46    1   42 1
    47    3   43 1
    48    4   44 1
    49    6   45 1
    50    8   46 1
    51   11   47 1
    52   12   48 1
    53   16   49 1
    54   17   50 1
    55   18   51 1
    56   20   52 1
    57   23   53 1
    58   25   54 1
    59   27   55 1
    60   29   56 1
    61   31   57 1
    62   34   58 1
    63   35   59 1
    64   35   60 1
    65   35   61 1
