@<TRIPOS>MOLECULE
~{N}-(2-chloro-6-methyl-phenyl)-2-[[6-[4-(2-hydroxyethyl)piperazin-1-yl]-2-methyl-pyrimidin-4-yl]amino]thiazole-5-carboxamide
   59    62     0     0     0
SMALL
USER_CHARGES

@<TRIPOS>ATOM
      1 C1        -44.0416   -3.3964  -59.6599 C.2       1 MOL         0.4038
      2 C2        -43.9429   -2.0331  -59.8436 C.2       1 MOL        -0.3018
      3 S1        -42.3623   -1.5101  -59.4317 S.3       1 MOL        -0.0608
      4 C3        -41.9516   -3.1320  -59.0500 C.2       1 MOL         0.6642
      5 N1        -42.9006   -4.0283  -59.2053 N.2       1 MOL        -0.6461
      6 N2        -40.6493   -3.4250  -58.5984 N.pl3     1 MOL        -0.8341
      7 C4        -40.0159   -4.6316  -58.2124 C.ar      1 MOL         0.7030
      8 C5        -40.7663   -5.7885  -58.2652 C.ar      1 MOL        -0.4499
      9 C6        -40.1131   -6.9419  -57.8812 C.ar      1 MOL         0.6917
     10 N3        -38.8268   -6.9752  -57.4754 N.ar      1 MOL        -0.7653
     11 C7        -38.2024   -5.7821  -57.4677 C.ar      1 MOL         0.6975
     12 N4        -38.7266   -4.5918  -57.8169 N.ar      1 MOL        -0.7142
     13 C8        -36.7786   -5.7785  -57.0248 C.3       1 MOL        -0.1351
     14 N5        -40.8394   -8.1373  -57.9202 N.pl3     1 MOL        -0.7670
     15 C9        -40.1070   -9.3811  -58.1897 C.3       1 MOL         0.2007
     16 C10       -41.0583  -10.4629  -58.7064 C.3       1 MOL         0.1681
     17 N6        -42.1894  -10.6512  -57.7896 N.3       1 MOL        -0.7434
     18 C11       -42.9403   -9.3967  -57.6589 C.3       1 MOL         0.1681
     19 C12       -42.0519   -8.2783  -57.1082 C.3       1 MOL         0.2007
     20 C13       -43.0619  -11.7243  -58.2652 C.3       1 MOL         0.1709
     21 C14       -42.4761  -13.0823  -57.8975 C.3       1 MOL         0.1289
     22 O1        -43.3408  -14.1075  -58.3698 O.3       1 MOL        -0.6053
     23 C15       -44.9148   -1.0949  -60.2943 C.2       1 MOL         0.7225
     24 O2        -46.0849   -1.4231  -60.6076 O.2       1 MOL        -0.5935
     25 N7        -44.5032    0.2599  -60.3366 N.am      1 MOL        -0.4689
     26 C16       -45.2388    1.4158  -60.7012 C.ar      1 MOL         0.0591
     27 C17       -45.7809    1.5066  -61.9833 C.ar      1 MOL        -0.0509
     28 C18       -46.5067    2.6383  -62.3550 C.ar      1 MOL        -0.1208
     29 C19       -46.6905    3.6791  -61.4447 C.ar      1 MOL        -0.1289
     30 C20       -46.1484    3.5882  -60.1627 C.ar      1 MOL        -0.1155
     31 C21       -45.4225    2.4565  -59.7910 C.ar      1 MOL        -0.0125
     32 Cl1       -44.7701    2.3889  -58.1922 Cl        1 MOL        -0.1012
     33 C22       -45.6020    0.4092  -62.9821 C.3       1 MOL        -0.0580
     34 H1        -44.9300   -3.9866  -59.8439 H         1 MOL         0.0465
     35 H2        -40.0458   -2.6096  -58.5371 H         1 MOL         0.4579
     36 H3        -41.8014   -5.7910  -58.5872 H         1 MOL         0.1532
     37 H4        -36.1112   -5.9296  -57.8822 H         1 MOL         0.0648
     38 H5        -36.5138   -4.8292  -56.5411 H         1 MOL         0.0648
     39 H6        -36.5872   -6.5726  -56.2911 H         1 MOL         0.0648
     40 H7        -39.3280   -9.2055  -58.9420 H         1 MOL         0.0520
     41 H8        -39.6122   -9.7270  -57.2724 H         1 MOL         0.0520
     42 H9        -41.4136  -10.1893  -59.7092 H         1 MOL         0.0408
     43 H10       -40.4933  -11.3978  -58.8045 H         1 MOL         0.0408
     44 H11       -43.3570   -9.0906  -58.6282 H         1 MOL         0.0408
     45 H12       -43.7834   -9.5339  -56.9708 H         1 MOL         0.0408
     46 H13       -42.6214   -7.3406  -57.1121 H         1 MOL         0.0520
     47 H14       -41.7792   -8.4969  -56.0671 H         1 MOL         0.0520
     48 H15       -43.1787  -11.6382  -59.3561 H         1 MOL         0.0481
     49 H16       -44.0537  -11.6129  -57.8025 H         1 MOL         0.0481
     50 H17       -42.3918  -13.1853  -56.8112 H         1 MOL         0.0292
     51 H18       -41.4874  -13.2208  -58.3470 H         1 MOL         0.0292
     52 H19       -42.9358  -14.9529  -58.1178 H         1 MOL         0.4028
     53 H20       -43.5487    0.4473  -60.0398 H         1 MOL         0.3237
     54 H21       -46.9329    2.7192  -63.3516 H         1 MOL         0.1375
     55 H22       -47.2557    4.5601  -61.7342 H         1 MOL         0.1387
     56 H23       -46.3007    4.4084  -59.4656 H         1 MOL         0.1484
     57 H24       -46.4213   -0.3138  -62.9011 H         1 MOL         0.0551
     58 H25       -45.5831    0.8047  -64.0047 H         1 MOL         0.0551
     59 H26       -44.6529   -0.1173  -62.8249 H         1 MOL         0.0551
@<TRIPOS>BOND
     1    1    5 1
     2    1    2 2
     3    2    3 1
     4    3    4 1
     5    4    5 2
     6    4    6 1
     7    6    7 1
     8    7   12 ar
     9    7    8 ar
    10    8    9 ar
    11    9   10 ar
    12   10   11 ar
    13   11   12 ar
    14   11   13 1
    15    9   14 1
    16   14   19 1
    17   14   15 1
    18   15   16 1
    19   16   17 1
    20   17   18 1
    21   18   19 1
    22   17   20 1
    23   20   21 1
    24   21   22 1
    25    2   23 1
    26   23   24 2
    27   23   25 am
    28   25   26 1
    29   26   31 ar
    30   26   27 ar
    31   27   28 ar
    32   28   29 ar
    33   29   30 ar
    34   30   31 ar
    35   31   32 1
    36   27   33 1
    37    1   34 1
    38    6   35 1
    39    8   36 1
    40   13   37 1
    41   13   38 1
    42   13   39 1
    43   15   40 1
    44   15   41 1
    45   16   42 1
    46   16   43 1
    47   18   44 1
    48   18   45 1
    49   19   46 1
    50   19   47 1
    51   20   48 1
    52   20   49 1
    53   21   50 1
    54   21   51 1
    55   22   52 1
    56   25   53 1
    57   28   54 1
    58   29   55 1
    59   30   56 1
    60   33   57 1
    61   33   58 1
    62   33   59 1
