@<TRIPOS>MOLECULE
~{N}-(3-ethynylphenyl)-6,7-bis(2-methoxyethoxy)quinazolin-4-amine
   52    54     0     0     0
SMALL
USER_CHARGES

@<TRIPOS>ATOM
      1 C1        -40.2261    4.2253  -63.8610 C.3       1 MOL         0.1165
      2 O1        -40.7446    3.2364  -62.9819 O.3       1 MOL        -0.4213
      3 C2        -39.8648    2.1244  -62.8696 C.3       1 MOL         0.1211
      4 C3        -40.4710    1.1074  -61.9219 C.3       1 MOL         0.1280
      5 O2        -41.7261    0.6814  -62.4390 O.3       1 MOL        -0.3274
      6 C4        -42.6684    0.3078  -61.5303 C.ar      1 MOL         0.0932
      7 C5        -42.4082   -0.7475  -60.6617 C.ar      1 MOL        -0.1286
      8 C6        -43.3766   -1.1387  -59.7208 C.ar      1 MOL        -0.2872
      9 C7        -44.6135   -0.4784  -59.6398 C.ar      1 MOL         0.4426
     10 C8        -44.8472    0.5744  -60.5211 C.ar      1 MOL        -0.2160
     11 C9        -43.8893    0.9694  -61.4595 C.ar      1 MOL         0.1319
     12 O3        -44.1655    2.0056  -62.3001 O.3       1 MOL        -0.3278
     13 C10       -45.2930    1.8587  -63.1608 C.3       1 MOL         0.1270
     14 C11       -45.0429    2.6392  -64.4354 C.3       1 MOL         0.1236
     15 O4        -43.8772    2.1296  -65.0718 O.3       1 MOL        -0.4243
     16 C12       -43.5946    2.8275  -66.2766 C.3       1 MOL         0.1194
     17 N1        -45.5469   -0.8444  -58.7439 N.ar      1 MOL        -0.7097
     18 C13       -45.2356   -1.8737  -57.9303 C.ar      1 MOL         0.6679
     19 N2        -44.0920   -2.5773  -57.9151 N.ar      1 MOL        -0.7558
     20 C14       -43.1797   -2.1852  -58.8243 C.ar      1 MOL         0.7113
     21 N3        -41.9555   -2.8986  -58.8466 N.pl3     1 MOL        -0.7614
     22 C15       -41.6278   -4.2275  -58.5341 C.ar      1 MOL         0.1635
     23 C16       -42.5706   -5.2392  -58.7169 C.ar      1 MOL        -0.1721
     24 C17       -42.2457   -6.5597  -58.4067 C.ar      1 MOL        -0.1077
     25 C18       -40.9779   -6.8685  -57.9136 C.ar      1 MOL        -0.1299
     26 C19       -40.0352   -5.8568  -57.7307 C.ar      1 MOL         0.0476
     27 C20       -40.3602   -4.5363  -58.0410 C.ar      1 MOL        -0.1169
     28 C21       -38.7366   -6.1738  -57.2256 C.1       1 MOL        -0.1265
     29 C22       -37.6422   -6.4407  -56.8002 C.1       1 MOL        -0.1311
     30 H1        -40.9261    5.0621  -63.9228 H         1 MOL         0.0360
     31 H2        -40.0739    3.7898  -64.8517 H         1 MOL         0.0360
     32 H3        -39.2696    4.5814  -63.4709 H         1 MOL         0.0360
     33 H4        -39.7244    1.6986  -63.8678 H         1 MOL         0.0434
     34 H5        -38.9062    2.4834  -62.4837 H         1 MOL         0.0434
     35 H6        -40.6401    1.5423  -60.9318 H         1 MOL         0.0518
     36 H7        -39.8216    0.2315  -61.8336 H         1 MOL         0.0518
     37 H8        -41.4480   -1.2533  -60.7310 H         1 MOL         0.1434
     38 H9        -45.7976    1.1046  -60.4808 H         1 MOL         0.1674
     39 H10       -45.4232    0.7931  -63.3671 H         1 MOL         0.0545
     40 H11       -46.1711    2.2459  -62.6382 H         1 MOL         0.0545
     41 H12       -44.8796    3.7007  -64.2244 H         1 MOL         0.0435
     42 H13       -45.8861    2.5255  -65.1230 H         1 MOL         0.0435
     43 H14       -42.6965    2.4086  -66.7333 H         1 MOL         0.0352
     44 H15       -43.4482    3.8857  -66.0541 H         1 MOL         0.0352
     45 H16       -44.4397    2.7097  -66.9564 H         1 MOL         0.0352
     46 H17       -45.9918   -2.1635  -57.2110 H         1 MOL         0.0559
     47 H18       -41.1693   -2.3344  -59.1461 H         1 MOL         0.4483
     48 H19       -43.5615   -5.0097  -59.1005 H         1 MOL         0.1328
     49 H20       -42.9798   -7.3473  -58.5490 H         1 MOL         0.1359
     50 H21       -40.7396   -7.9027  -57.6763 H         1 MOL         0.1419
     51 H22       -39.6277   -3.7438  -57.8998 H         1 MOL         0.1573
     52 H23       -36.6742   -6.6768  -56.4245 H         1 MOL         0.1677
@<TRIPOS>BOND
     1    1    2 1
     2    2    3 1
     3    3    4 1
     4    4    5 1
     5    5    6 1
     6    6   11 ar
     7    6    7 ar
     8    7    8 ar
     9    8   20 ar
    10    8    9 ar
    11    9   10 ar
    12   10   11 ar
    13   11   12 1
    14   12   13 1
    15   13   14 1
    16   14   15 1
    17   15   16 1
    18    9   17 ar
    19   17   18 ar
    20   18   19 ar
    21   19   20 ar
    22   20   21 1
    23   21   22 1
    24   22   27 ar
    25   22   23 ar
    26   23   24 ar
    27   24   25 ar
    28   25   26 ar
    29   26   27 ar
    30   26   28 1
    31   28   29 3
    32    1   30 1
    33    1   31 1
    34    1   32 1
    35    3   33 1
    36    3   34 1
    37    4   35 1
    38    4   36 1
    39    7   37 1
    40   10   38 1
    41   13   39 1
    42   13   40 1
    43   14   41 1
    44   14   42 1
    45   16   43 1
    46   16   44 1
    47   16   45 1
    48   18   46 1
    49   21   47 1
    50   23   48 1
    51   24   49 1
    52   25   50 1
    53   27   51 1
    54   29   52 1
