@<TRIPOS>MOLECULE
4-(2,4-dichloro-5-methoxy-anilino)-6-methoxy-7-[3-(4-methylpiperazin-1-yl)propoxy]quinoline-3-carbonitrile
   65    68     0     0     0
SMALL
USER_CHARGES

@<TRIPOS>ATOM
      1 C1        -44.1130    2.0495  -59.9562 C.ar      1 MOL        -0.1135
      2 C2        -43.6364    1.0444  -59.1194 C.ar      1 MOL         0.0881
      3 C3        -44.4406   -0.0532  -58.8389 C.ar      1 MOL         0.1210
      4 C4        -45.7189   -0.1433  -59.3953 C.ar      1 MOL        -0.2141
      5 C5        -46.2209    0.8471  -60.2351 C.ar      1 MOL         0.4310
      6 C6        -45.3988    1.9586  -60.5157 C.ar      1 MOL        -0.1738
      7 C7        -45.9036    2.9557  -61.3612 C.ar      1 MOL         0.2624
      8 C8        -47.1775    2.8367  -61.8978 C.ar      1 MOL        -0.1707
      9 C9        -47.9073    1.7134  -61.5659 C.ar      1 MOL         0.4607
     10 N1        -47.4575    0.7288  -60.7544 N.ar      1 MOL        -0.6627
     11 C10       -47.7442    3.8209  -62.7661 C.1       1 MOL         0.2440
     12 N2        -48.2045    4.6203  -63.4715 N.1       1 MOL        -0.3586
     13 N3        -45.1236    4.0974  -61.6797 N.pl3     1 MOL        -0.6909
     14 C11       -44.2115    4.3611  -62.7123 C.ar      1 MOL         0.1952
     15 C12       -43.5603    5.5910  -62.8079 C.ar      1 MOL        -0.0295
     16 C13       -42.6585    5.8237  -63.8463 C.ar      1 MOL        -0.0838
     17 C14       -42.4079    4.8266  -64.7890 C.ar      1 MOL        -0.0184
     18 C15       -43.0591    3.5968  -64.6933 C.ar      1 MOL         0.1334
     19 C16       -43.9610    3.3641  -63.6550 C.ar      1 MOL        -0.1806
     20 O1        -42.8337    2.6044  -65.6004 O.3       1 MOL        -0.3373
     21 C17       -41.7806    1.6885  -65.3092 C.3       1 MOL         0.1155
     22 Cl1       -41.2876    5.1408  -66.0626 Cl        1 MOL        -0.0644
     23 Cl2       -43.8415    6.8524  -61.6613 Cl        1 MOL        -0.0755
     24 O2        -43.9925   -1.0544  -58.0182 O.3       1 MOL        -0.3346
     25 C18       -43.9169   -2.3574  -58.5811 C.3       1 MOL         0.1327
     26 C19       -42.7891   -3.1218  -57.8984 C.3       1 MOL        -0.0888
     27 C20       -42.6263   -4.5379  -58.4348 C.3       1 MOL         0.1796
     28 N4        -41.5432   -5.2652  -57.7759 N.3       1 MOL        -0.7378
     29 C21       -40.2372   -4.8306  -58.2864 C.3       1 MOL         0.1711
     30 C22       -39.1007   -5.5947  -57.5984 C.3       1 MOL         0.1674
     31 N5        -39.2633   -7.0429  -57.7751 N.3       1 MOL        -0.7336
     32 C23       -40.5689   -7.4778  -57.2637 C.3       1 MOL         0.1674
     33 C24       -41.7060   -6.7136  -57.9505 C.3       1 MOL         0.1711
     34 C25       -38.1797   -7.7710  -57.1180 C.3       1 MOL         0.1580
     35 O3        -42.3884    1.1474  -58.5852 O.3       1 MOL        -0.3321
     36 C26       -41.3127    0.5871  -59.3363 C.3       1 MOL         0.1163
     37 H1        -43.4655    2.8993  -60.1612 H         1 MOL         0.1532
     38 H2        -46.3349   -1.0112  -59.1637 H         1 MOL         0.1655
     39 H3        -48.9112    1.5522  -61.9487 H         1 MOL         0.0371
     40 H4        -45.2565    4.8638  -61.0318 H         1 MOL         0.4556
     41 H5        -42.1500    6.7826  -63.9213 H         1 MOL         0.1657
     42 H6        -44.4663    2.4034  -63.5851 H         1 MOL         0.1571
     43 H7        -41.7147    0.9560  -66.1130 H         1 MOL         0.0471
     44 H8        -41.9898    1.1969  -64.3596 H         1 MOL         0.0471
     45 H9        -40.8473    2.2459  -65.2396 H         1 MOL         0.0471
     46 H10       -43.7355   -2.2584  -59.6558 H         1 MOL         0.0410
     47 H11       -44.8774   -2.8590  -58.4260 H         1 MOL         0.0410
     48 H12       -42.9899   -3.1637  -56.8206 H         1 MOL         0.0653
     49 H13       -41.8522   -2.5609  -58.0071 H         1 MOL         0.0653
     50 H14       -43.5434   -5.1112  -58.2675 H         1 MOL         0.0322
     51 H15       -42.4189   -4.5302  -59.5096 H         1 MOL         0.0322
     52 H16       -40.1737   -4.9746  -59.3736 H         1 MOL         0.0370
     53 H17       -40.1006   -3.7601  -58.0908 H         1 MOL         0.0370
     54 H18       -38.1508   -5.2717  -58.0414 H         1 MOL         0.0377
     55 H19       -39.0704   -5.3307  -56.5324 H         1 MOL         0.0377
     56 H20       -40.7056   -8.5483  -57.4595 H         1 MOL         0.0377
     57 H21       -40.6315   -7.3341  -56.1764 H         1 MOL         0.0377
     58 H22       -41.7376   -6.9786  -59.0162 H         1 MOL         0.0370
     59 H23       -42.6556   -7.0361  -57.5063 H         1 MOL         0.0370
     60 H24       -38.3300   -8.8351  -57.2677 H         1 MOL         0.0322
     61 H25       -38.1907   -7.5403  -56.0577 H         1 MOL         0.0322
     62 H26       -37.2337   -7.4653  -57.5528 H         1 MOL         0.0322
     63 H27       -40.3821    0.7421  -58.7919 H         1 MOL         0.0460
     64 H28       -41.2715    1.0709  -60.3114 H         1 MOL         0.0460
     65 H29       -41.4967   -0.4793  -59.4590 H         1 MOL         0.0460
@<TRIPOS>BOND
     1    1    6 ar
     2    1    2 ar
     3    2    3 ar
     4    3    4 ar
     5    4    5 ar
     6    5   10 ar
     7    5    6 ar
     8    6    7 ar
     9    7    8 ar
    10    8    9 ar
    11    9   10 ar
    12    8   11 1
    13   11   12 3
    14    7   13 1
    15   13   14 1
    16   14   19 ar
    17   14   15 ar
    18   15   16 ar
    19   16   17 ar
    20   17   18 ar
    21   18   19 ar
    22   18   20 1
    23   20   21 1
    24   17   22 1
    25   15   23 1
    26    3   24 1
    27   24   25 1
    28   25   26 1
    29   26   27 1
    30   27   28 1
    31   28   33 1
    32   28   29 1
    33   29   30 1
    34   30   31 1
    35   31   32 1
    36   32   33 1
    37   31   34 1
    38    2   35 1
    39   35   36 1
    40    1   37 1
    41    4   38 1
    42    9   39 1
    43   13   40 1
    44   16   41 1
    45   19   42 1
    46   21   43 1
    47   21   44 1
    48   21   45 1
    49   25   46 1
    50   25   47 1
    51   26   48 1
    52   26   49 1
    53   27   50 1
    54   27   51 1
    55   29   52 1
    56   29   53 1
    57   30   54 1
    58   30   55 1
    59   32   56 1
    60   32   57 1
    61   33   58 1
    62   33   59 1
    63   34   60 1
    64   34   61 1
    65   34   62 1
    66   36   63 1
    67   36   64 1
    68   36   65 1
