@<TRIPOS>MOLECULE
~{N}-(3-ethynylphenyl)-6,7-bis(2-methoxyethoxy)quinazolin-4-amine
   52    54     0     0     0
SMALL
USER_CHARGES

@<TRIPOS>ATOM
      1 C1        -37.7517   -6.9317  -56.8619 C.1       1 MOL        -0.1311
      2 C2        -38.7954   -6.5091  -57.2790 C.1       1 MOL        -0.1265
      3 C3        -42.3920   -6.3155  -58.2190 C.ar      1 MOL        -0.1077
      4 C4        -41.1793   -6.8061  -57.7351 C.ar      1 MOL        -0.1299
      5 C5        -42.4629   -5.0246  -58.7428 C.ar      1 MOL        -0.1721
      6 C6        -40.1083   -4.7151  -58.2986 C.ar      1 MOL        -0.1169
      7 C7        -41.5387   -1.0539  -61.4554 C.ar      1 MOL        -0.1286
      8 C8        -43.6358    0.7677  -61.4452 C.ar      1 MOL        -0.2160
      9 C9        -44.3095   -1.0813  -58.4479 C.ar      1 MOL         0.6679
     10 C10       -40.0374   -6.0059  -57.7749 C.ar      1 MOL         0.0476
     11 C11       -42.4884   -1.0676  -60.4191 C.ar      1 MOL        -0.2872
     12 C12       -43.5532   -0.1520  -60.4025 C.ar      1 MOL         0.4426
     13 C13       -41.3211   -4.2244  -58.7826 C.ar      1 MOL         0.1635
     14 C14       -41.6456   -0.1240  -62.4849 C.ar      1 MOL         0.0932
     15 C15       -42.6954    0.7877  -62.4793 C.ar      1 MOL         0.1319
     16 C16       -42.4393   -1.9709  -59.3610 C.ar      1 MOL         0.7113
     17 C17       -38.4962    0.1187  -66.9249 C.3       1 MOL         0.1165
     18 C18       -39.2670    3.6968  -63.9852 C.3       1 MOL         0.1194
     19 C19       -40.5972   -1.3063  -64.2621 C.3       1 MOL         0.1280
     20 C20       -42.7844    3.0820  -63.0992 C.3       1 MOL         0.1270
     21 C21       -40.1830   -0.9350  -65.6730 C.3       1 MOL         0.1211
     22 C22       -41.6075    3.7527  -63.7810 C.3       1 MOL         0.1236
     23 N1        -44.4672   -0.1564  -59.4165 N.ar      1 MOL        -0.7097
     24 N2        -43.3370   -2.0028  -58.3581 N.ar      1 MOL        -0.7558
     25 N3        -41.3930   -2.9254  -59.3098 N.pl3     1 MOL        -0.7614
     26 O1        -40.7225   -0.1163  -63.4853 O.3       1 MOL        -0.3274
     27 O2        -42.8195    1.7073  -63.4771 O.3       1 MOL        -0.3278
     28 O3        -38.9451   -0.2359  -65.6244 O.3       1 MOL        -0.4213
     29 O4        -40.4049    3.1213  -63.3586 O.3       1 MOL        -0.4243
     30 H1        -36.8259   -7.3061  -56.4919 H         1 MOL         0.1677
     31 H2        -43.2811   -6.9385  -58.1880 H         1 MOL         0.1359
     32 H3        -41.1400   -7.8145  -57.3298 H         1 MOL         0.1419
     33 H4        -43.4131   -4.6524  -59.1172 H         1 MOL         0.1328
     34 H5        -39.2199   -4.0872  -58.3316 H         1 MOL         0.1573
     35 H6        -40.7113   -1.7593  -61.4758 H         1 MOL         0.1434
     36 H7        -44.4510    1.4896  -61.4581 H         1 MOL         0.1674
     37 H8        -45.0491   -1.0795  -57.6566 H         1 MOL         0.0559
     38 H9        -37.5457    0.6526  -66.8501 H         1 MOL         0.0360
     39 H10       -39.2443    0.7509  -67.4097 H         1 MOL         0.0360
     40 H11       -38.3550   -0.7914  -67.5127 H         1 MOL         0.0360
     41 H12       -38.3635    3.1891  -63.6387 H         1 MOL         0.0352
     42 H13       -39.2156    4.7612  -63.7424 H         1 MOL         0.0352
     43 H14       -39.3579    3.5759  -65.0673 H         1 MOL         0.0352
     44 H15       -39.8479   -1.9465  -63.7866 H         1 MOL         0.0518
     45 H16       -41.5658   -1.8147  -64.2688 H         1 MOL         0.0518
     46 H17       -43.7301    3.5426  -63.4009 H         1 MOL         0.0545
     47 H18       -42.6784    3.1358  -62.0118 H         1 MOL         0.0545
     48 H19       -40.9250   -0.2821  -66.1432 H         1 MOL         0.0434
     49 H20       -40.0452   -1.8341  -66.2807 H         1 MOL         0.0434
     50 H21       -41.5481    4.8125  -63.5139 H         1 MOL         0.0435
     51 H22       -41.6851    3.6503  -64.8674 H         1 MOL         0.0435
     52 H23       -40.5344   -2.6013  -59.7390 H         1 MOL         0.4483
@<TRIPOS>BOND
     1    1    2 3
     2    2   10 1
     3    3    4 ar
     4    3    5 ar
     5    4   10 ar
     6    5   13 ar
     7    6   10 ar
     8    6   13 ar
     9    7   11 ar
    10    7   14 ar
    11    8   12 ar
    12    8   15 ar
    13    9   23 ar
    14    9   24 ar
    15   11   12 ar
    16   11   16 ar
    17   12   23 ar
    18   13   25 1
    19   14   15 ar
    20   14   26 1
    21   15   27 1
    22   16   24 ar
    23   16   25 1
    24   17   28 1
    25   18   29 1
    26   19   21 1
    27   19   26 1
    28   20   22 1
    29   20   27 1
    30   21   28 1
    31   22   29 1
    32    1   30 1
    33    3   31 1
    34    4   32 1
    35    5   33 1
    36    6   34 1
    37    7   35 1
    38    8   36 1
    39    9   37 1
    40   17   38 1
    41   17   39 1
    42   17   40 1
    43   18   41 1
    44   18   42 1
    45   18   43 1
    46   19   44 1
    47   19   45 1
    48   20   46 1
    49   20   47 1
    50   21   48 1
    51   21   49 1
    52   22   50 1
    53   22   51 1
    54   25   52 1
