@<TRIPOS>MOLECULE
4-methyl-~{N}-[3-(4-methylimidazol-1-yl)-5-(trifluoromethyl)phenyl]-3-[[4-(3-pyridyl)pyrimidin-2-yl]amino]benzamide
   61    65     0     0     0
SMALL
USER_CHARGES

@<TRIPOS>ATOM
      1 C1        -43.4519  -14.6425  -57.1307 C.ar      1 MOL        -0.1500
      2 C2        -42.8226  -13.6293  -57.8537 C.ar      1 MOL        -0.1500
      3 C3        -39.1126   -4.2914  -58.2230 C.ar      1 MOL        -0.1500
      4 C4        -38.2954   -5.2982  -57.7063 C.ar      1 MOL        -0.1500
      5 C5        -41.4365  -11.3653  -59.3097 C.ar      1 MOL        -0.1500
      6 C6        -41.0356   -5.7262  -57.9807 C.ar      1 MOL        -0.1500
      7 C7        -45.6674   -0.4891  -59.2064 C.ar      1 MOL        -0.1500
      8 C8        -44.8892   -2.5660  -58.2577 C.ar      1 MOL        -0.1500
      9 C9        -43.3948   -1.2335  -59.6062 C.ar      1 MOL        -0.1500
     10 C10       -43.7309  -14.4138  -55.7982 C.ar      1 MOL         0.1600
     11 C11       -40.8292  -10.2446  -59.8364 C.ar      1 MOL         0.1600
     12 C12       -42.8211  -12.3050  -55.8986 C.ar      1 MOL         0.1600
     13 C13       -45.0926    1.8637  -60.9143 C.2       1 MOL        -0.3016
     14 C14       -43.0292    1.2157  -61.2725 C.2       1 MOL         0.0365
     15 C15       -42.4824  -12.4071  -57.2535 C.ar      1 MOL         0.0000
     16 C16       -40.4912   -4.4930  -58.3588 C.ar      1 MOL         0.0862
     17 C17       -38.8351   -6.5292  -57.3146 C.ar      1 MOL        -0.1435
     18 C18       -45.9123   -1.6296  -58.4354 C.ar      1 MOL        -0.1435
     19 C19       -44.4148   -0.2854  -59.8025 C.ar      1 MOL        -0.0230
     20 C20       -40.2167   -6.7514  -57.4687 C.ar      1 MOL         0.1000
     21 C21       -43.6247   -2.3780  -58.8318 C.ar      1 MOL         0.1170
     22 C22       -41.8191  -11.3000  -57.9795 C.ar      1 MOL         0.3100
     23 C23       -44.4370    2.7405  -61.7504 C.2       1 MOL         0.0462
     24 C24       -41.0012   -9.1097  -57.8512 C.ar      1 MOL         0.7200
     25 C25       -41.3105   -3.3660  -58.8998 C.2       1 MOL         0.5438
     26 C26       -37.9283   -7.5898  -56.7553 C.3       1 MOL         0.1435
     27 C27       -44.9544    3.9664  -62.3886 C.3       1 MOL         0.1810
     28 C28       -47.2487   -1.8644  -57.7933 C.3       1 MOL         1.1635
     29 N1        -43.4297  -13.2670  -55.1604 N.ar      1 MOL        -0.6200
     30 N2        -40.6023   -9.1154  -59.1414 N.ar      1 MOL        -0.6200
     31 N3        -43.1491    2.3297  -61.9605 N.2       1 MOL        -0.5653
     32 N4        -41.5974  -10.1720  -57.2557 N.ar      1 MOL        -0.6200
     33 N5        -44.1890    0.8662  -60.6116 N.pl3     1 MOL         0.3262
     34 N6        -40.8049   -7.9627  -57.0672 N.pl3     1 MOL        -0.6000
     35 N7        -42.6593   -3.3842  -58.5678 N.am      1 MOL        -0.5470
     36 O1        -40.7292   -2.4984  -59.5447 O.2       1 MOL        -0.5700
     37 F1        -48.1964   -0.9490  -58.1377 F         1 MOL        -0.3400
     38 F2        -47.7767   -3.0780  -58.1156 F         1 MOL        -0.3400
     39 F3        -47.1825   -1.8340  -56.4333 F         1 MOL        -0.3400
     40 H1        -43.7147  -15.5813  -57.6048 H         1 MOL         0.1500
     41 H2        -42.6126  -13.8247  -58.9015 H         1 MOL         0.1500
     42 H3        -38.6498   -3.3491  -58.5057 H         1 MOL         0.1500
     43 H4        -37.2295   -5.1082  -57.6065 H         1 MOL         0.1500
     44 H5        -41.5845  -12.2347  -59.9365 H         1 MOL         0.1500
     45 H6        -42.1000   -5.9252  -58.0765 H         1 MOL         0.1500
     46 H7        -46.4767    0.2232  -59.3289 H         1 MOL         0.1500
     47 H8        -45.0855   -3.4515  -57.6559 H         1 MOL         0.1500
     48 H9        -42.4271   -1.0811  -60.0632 H         1 MOL         0.1500
     49 H10       -44.2188  -15.1694  -55.1921 H         1 MOL         0.1500
     50 H11       -40.4982  -10.2252  -60.8692 H         1 MOL         0.1500
     51 H12       -42.6036  -11.4083  -55.3238 H         1 MOL         0.1500
     52 H13       -46.1077    1.8818  -60.5444 H         1 MOL         0.1500
     53 H14       -42.1205    0.6316  -61.2344 H         1 MOL         0.1500
     54 H15       -38.3340   -7.9916  -55.8211 H         1 MOL         0.0000
     55 H16       -37.8075   -8.4021  -57.4788 H         1 MOL         0.0000
     56 H17       -36.9359   -7.1869  -56.5273 H         1 MOL         0.0000
     57 H18       -44.5921    4.8541  -61.8630 H         1 MOL         0.0000
     58 H19       -44.6252    4.0211  -63.4312 H         1 MOL         0.0000
     59 H20       -46.0491    3.9832  -62.3822 H         1 MOL         0.0000
     60 H21       -41.1337   -8.0109  -56.1109 H         1 MOL         0.4000
     61 H22       -43.0133   -4.1601  -58.0167 H         1 MOL         0.3700
@<TRIPOS>BOND
     1    1    2 ar
     2    1   10 ar
     3    2   15 ar
     4    3    4 ar
     5    3   16 ar
     6    4   17 ar
     7    5   11 ar
     8    5   22 ar
     9    6   16 ar
    10    6   20 ar
    11    7   18 ar
    12    7   19 ar
    13    8   18 ar
    14    8   21 ar
    15    9   19 ar
    16    9   21 ar
    17   10   29 ar
    18   11   30 ar
    19   12   15 ar
    20   12   29 ar
    21   13   23 2
    22   13   33 1
    23   14   31 2
    24   14   33 1
    25   15   22 1
    26   16   25 1
    27   17   20 ar
    28   17   26 1
    29   18   28 1
    30   19   33 1
    31   20   34 1
    32   21   35 1
    33   22   32 ar
    34   23   27 1
    35   23   31 1
    36   24   30 ar
    37   24   32 ar
    38   24   34 1
    39   25   35 am
    40   25   36 2
    41   28   37 1
    42   28   38 1
    43   28   39 1
    44    1   40 1
    45    2   41 1
    46    3   42 1
    47    4   43 1
    48    5   44 1
    49    6   45 1
    50    7   46 1
    51    8   47 1
    52    9   48 1
    53   10   49 1
    54   11   50 1
    55   12   51 1
    56   13   52 1
    57   14   53 1
    58   26   54 1
    59   26   55 1
    60   26   56 1
    61   27   57 1
    62   27   58 1
    63   27   59 1
    64   34   60 1
    65   35   61 1
