@<TRIPOS>MOLECULE
4-[(4-methylpiperazin-1-yl)methyl]-~{N}-[4-methyl-3-[[4-(3-pyridyl)pyrimidin-2-yl]amino]phenyl]benzamide
   68    72     0     0     0
SMALL
USER_CHARGES

@<TRIPOS>ATOM
      1 C1        -43.4377  -14.5915  -57.1328 C.ar      1 MOL        -0.1500
      2 C2        -42.8079  -13.5739  -57.8489 C.ar      1 MOL        -0.1500
      3 C3        -44.5073   -1.5803  -59.0655 C.ar      1 MOL        -0.1500
      4 C4        -42.3783   -0.9404  -60.0023 C.ar      1 MOL        -0.1500
      5 C5        -45.0518   -0.3545  -59.4578 C.ar      1 MOL        -0.1500
      6 C6        -42.9247    0.2869  -60.3877 C.ar      1 MOL        -0.1500
      7 C7        -38.3041   -5.2596  -57.7457 C.ar      1 MOL        -0.1500
      8 C8        -39.1274   -4.2371  -58.2176 C.ar      1 MOL        -0.1500
      9 C9        -41.4099  -11.3088  -59.2873 C.ar      1 MOL        -0.1500
     10 C10       -41.0596   -5.6394  -57.9125 C.ar      1 MOL        -0.1500
     11 C11       -43.7137  -14.3725  -55.7982 C.ar      1 MOL         0.1600
     12 C12       -40.8042  -10.1858  -59.8097 C.ar      1 MOL         0.1600
     13 C13       -42.8022  -12.2637  -55.8846 C.ar      1 MOL         0.1600
     14 C14       -42.4658  -12.3563  -57.2405 C.ar      1 MOL         0.0000
     15 C15       -43.1660   -1.8847  -59.3363 C.ar      1 MOL         0.0862
     16 C16       -44.2691    0.5900  -60.1302 C.ar      1 MOL        -0.1435
     17 C17       -38.8472   -6.4855  -57.3456 C.ar      1 MOL        -0.1435
     18 C18       -40.5137   -4.4120  -58.2996 C.ar      1 MOL         0.1170
     19 C19       -40.2366   -6.6848  -57.4488 C.ar      1 MOL         0.1000
     20 C20       -41.8032  -11.2448  -57.9602 C.ar      1 MOL         0.3100
     21 C21       -41.0022   -9.0487  -57.8269 C.ar      1 MOL         0.7200
     22 C22       -42.6433   -3.2146  -58.9012 C.2       1 MOL         0.5438
     23 C23       -44.4093    1.9322  -64.3116 C.3       1 MOL         0.2700
     24 C24       -44.3333    4.2104  -63.5076 C.3       1 MOL         0.2700
     25 C25       -44.9732    1.4825  -62.9614 C.3       1 MOL         0.2700
     26 C26       -44.8711    3.7394  -62.1512 C.3       1 MOL         0.2700
     27 C27       -37.9344   -7.5622  -56.8313 C.3       1 MOL         0.1435
     28 C28       -44.1924    3.7525  -65.8691 C.3       1 MOL         0.2700
     29 C29       -44.8745    1.9125  -60.5539 C.3       1 MOL         0.4135
     30 N1        -43.4096  -13.2308  -55.1524 N.ar      1 MOL        -0.6200
     31 N2        -40.5912   -9.0542  -59.1139 N.ar      1 MOL        -0.6200
     32 N3        -41.5952  -10.1147  -57.2350 N.ar      1 MOL        -0.6200
     33 N4        -44.7707    3.3258  -64.5957 N.3       1 MOL        -0.8100
     34 N5        -44.4594    2.3533  -61.8949 N.3       1 MOL        -0.8100
     35 N6        -40.8292   -7.8943  -57.0469 N.pl3     1 MOL        -0.6000
     36 N7        -41.2642   -3.3043  -58.7659 N.am      1 MOL        -0.5470
     37 O1        -43.4595   -4.1044  -58.6814 O.2       1 MOL        -0.5700
     38 H1        -43.7036  -15.5256  -57.6143 H         1 MOL         0.1500
     39 H2        -42.6014  -13.7612  -58.8989 H         1 MOL         0.1500
     40 H3        -45.1514   -2.2861  -58.5467 H         1 MOL         0.1500
     41 H4        -41.3364   -1.1218  -60.2465 H         1 MOL         0.1500
     42 H5        -46.0955   -0.1463  -59.2353 H         1 MOL         0.1500
     43 H6        -42.2864    1.0013  -60.9023 H         1 MOL         0.1500
     44 H7        -37.2323   -5.0863  -57.6867 H         1 MOL         0.1500
     45 H8        -38.6694   -3.2954  -58.5131 H         1 MOL         0.1500
     46 H9        -41.5467  -12.1800  -59.9142 H         1 MOL         0.1500
     47 H10       -42.1276   -5.8254  -57.9574 H         1 MOL         0.1500
     48 H11       -44.2017  -15.1318  -55.1967 H         1 MOL         0.1500
     49 H12       -40.4638  -10.1665  -60.8394 H         1 MOL         0.1500
     50 H13       -42.5817  -11.3717  -55.3038 H         1 MOL         0.1500
     51 H14       -43.3181    1.8019  -64.3132 H         1 MOL         0.0000
     52 H15       -44.8163    1.2765  -65.0906 H         1 MOL         0.0000
     53 H16       -44.7003    5.2275  -63.6909 H         1 MOL         0.0000
     54 H17       -43.2367    4.2617  -63.4645 H         1 MOL         0.0000
     55 H18       -46.0712    1.4921  -62.9846 H         1 MOL         0.0000
     56 H19       -44.6626    0.4436  -62.8033 H         1 MOL         0.0000
     57 H20       -44.4696    4.4020  -61.3752 H         1 MOL         0.0000
     58 H21       -45.9650    3.8348  -62.1264 H         1 MOL         0.0000
     59 H22       -38.3576   -8.0366  -55.9398 H         1 MOL         0.0000
     60 H23       -37.7701   -8.3194  -57.6040 H         1 MOL         0.0000
     61 H24       -36.9638   -7.1487  -56.5379 H         1 MOL         0.0000
     62 H25       -44.5088    4.7725  -66.1124 H         1 MOL         0.0000
     63 H26       -44.5406    3.1090  -66.6844 H         1 MOL         0.0000
     64 H27       -43.0965    3.7245  -65.8547 H         1 MOL         0.0000
     65 H28       -45.9701    1.8636  -60.4991 H         1 MOL         0.0000
     66 H29       -44.5510    2.6493  -59.8068 H         1 MOL         0.0000
     67 H30       -41.1957   -7.9292  -56.1039 H         1 MOL         0.4000
     68 H31       -40.7014   -2.4861  -58.9775 H         1 MOL         0.3700
@<TRIPOS>BOND
     1    1    2 ar
     2    1   11 ar
     3    2   14 ar
     4    3    5 ar
     5    3   15 ar
     6    4    6 ar
     7    4   15 ar
     8    5   16 ar
     9    6   16 ar
    10    7    8 ar
    11    7   17 ar
    12    8   18 ar
    13    9   12 ar
    14    9   20 ar
    15   10   18 ar
    16   10   19 ar
    17   11   30 ar
    18   12   31 ar
    19   13   14 ar
    20   13   30 ar
    21   14   20 1
    22   15   22 1
    23   16   29 1
    24   17   19 ar
    25   17   27 1
    26   18   36 1
    27   19   35 1
    28   20   32 ar
    29   21   31 ar
    30   21   32 ar
    31   21   35 1
    32   22   36 am
    33   22   37 2
    34   23   25 1
    35   23   33 1
    36   24   26 1
    37   24   33 1
    38   25   34 1
    39   26   34 1
    40   28   33 1
    41   29   34 1
    42    1   38 1
    43    2   39 1
    44    3   40 1
    45    4   41 1
    46    5   42 1
    47    6   43 1
    48    7   44 1
    49    8   45 1
    50    9   46 1
    51   10   47 1
    52   11   48 1
    53   12   49 1
    54   13   50 1
    55   23   51 1
    56   23   52 1
    57   24   53 1
    58   24   54 1
    59   25   55 1
    60   25   56 1
    61   26   57 1
    62   26   58 1
    63   27   59 1
    64   27   60 1
    65   27   61 1
    66   28   62 1
    67   28   63 1
    68   28   64 1
    69   29   65 1
    70   29   66 1
    71   35   67 1
    72   36   68 1
