@<TRIPOS>MOLECULE
4-(2,4-dichloro-5-methoxy-anilino)-6-methoxy-7-[3-(4-methylpiperazin-1-yl)propoxy]quinoline-3-carbonitrile
   65    68     0     0     0
SMALL
USER_CHARGES

@<TRIPOS>ATOM
      1 C1        -37.8260   -7.9384  -56.3514 C.1       1 MOL         0.2440
      2 C2        -41.9234   -5.7166  -57.9310 C.ar      1 MOL        -0.1135
      3 C3        -40.3669   -3.5433  -58.6764 C.ar      1 MOL        -0.2141
      4 C4        -40.6023   -9.3302  -58.7302 C.ar      1 MOL        -0.1806
      5 C5        -42.1171  -11.3079  -57.4745 C.ar      1 MOL        -0.0838
      6 C6        -37.8304   -5.7182  -57.3411 C.ar      1 MOL         0.4607
      7 C7        -38.5267   -6.8405  -56.9409 C.ar      1 MOL        -0.1707
      8 C8        -40.5343   -5.7416  -57.7199 C.ar      1 MOL        -0.1738
      9 C9        -39.7367   -4.6406  -58.0961 C.ar      1 MOL         0.4310
     10 C10       -41.0135   -9.1597  -57.4083 C.ar      1 MOL         0.1952
     11 C11       -39.9004   -6.8466  -57.1359 C.ar      1 MOL         0.2624
     12 C12       -42.5275   -4.6060  -58.5132 C.ar      1 MOL         0.0881
     13 C13       -41.7479   -3.5182  -58.8863 C.ar      1 MOL         0.1210
     14 C14       -40.9485  -10.4895  -59.4243 C.ar      1 MOL         0.1334
     15 C15       -41.7709  -10.1485  -56.7804 C.ar      1 MOL        -0.0295
     16 C16       -41.7059  -11.4783  -58.7965 C.ar      1 MOL        -0.0184
     17 C17       -45.6430    3.1334  -60.8087 C.3       1 MOL         0.1674
     18 C18       -46.4833    1.5230  -62.3950 C.3       1 MOL         0.1674
     19 C19       -44.4252    2.2403  -60.5475 C.3       1 MOL         0.1711
     20 C20       -45.2647    0.6309  -62.1345 C.3       1 MOL         0.1711
     21 C21       -47.3178    3.7855  -62.4165 C.3       1 MOL         0.1580
     22 C22       -44.6820   -4.0801  -57.6546 C.3       1 MOL         0.1163
     23 C23       -39.2696  -11.2563  -60.9239 C.3       1 MOL         0.1155
     24 C24       -43.3838   -0.3087  -59.0431 C.3       1 MOL        -0.0888
     25 C25       -43.5928   -0.0229  -60.5243 C.3       1 MOL         0.1796
     26 C26       -42.1616   -1.1788  -58.7760 C.3       1 MOL         0.1327
     27 N1        -37.2572   -8.8296  -55.8729 N.1       1 MOL        -0.3586
     28 N2        -38.4034   -4.6319  -57.9081 N.ar      1 MOL        -0.6627
     29 N3        -46.1541    2.9360  -62.1706 N.3       1 MOL        -0.7336
     30 N4        -44.7554    0.8276  -60.7718 N.3       1 MOL        -0.7378
     31 N5        -40.6499   -7.9832  -56.7365 N.pl3     1 MOL        -0.6909
     32 O1        -43.8744   -4.5973  -58.7108 O.3       1 MOL        -0.3321
     33 O2        -40.5331  -10.6296  -60.7151 O.3       1 MOL        -0.3373
     34 O3        -42.3208   -2.4139  -59.4614 O.3       1 MOL        -0.3346
     35 Cl1       -42.3005   -9.9771  -55.1450 Cl        1 MOL        -0.0755
     36 Cl2       -42.1479  -12.9217  -59.6316 Cl        1 MOL        -0.0644
     37 H1        -42.5541   -6.5563  -57.6469 H         1 MOL         0.1532
     38 H2        -39.7723   -2.6810  -58.9753 H         1 MOL         0.1655
     39 H3        -40.0115   -8.5621  -59.2243 H         1 MOL         0.1571
     40 H4        -42.7079  -12.0797  -56.9855 H         1 MOL         0.1657
     41 H5        -36.7533   -5.6425  -57.2204 H         1 MOL         0.0371
     42 H6        -46.4219    2.9222  -60.0634 H         1 MOL         0.0377
     43 H7        -45.3389    4.1787  -60.6749 H         1 MOL         0.0377
     44 H8        -46.8010    1.3773  -63.4347 H         1 MOL         0.0377
     45 H9        -47.3161    1.2076  -61.7519 H         1 MOL         0.0377
     46 H10       -43.5919    2.5550  -61.1905 H         1 MOL         0.0370
     47 H11       -44.1076    2.3860  -59.5078 H         1 MOL         0.0370
     48 H12       -45.5681   -0.4145  -62.2693 H         1 MOL         0.0370
     49 H13       -44.4853    0.8434  -62.8790 H         1 MOL         0.0370
     50 H14       -47.6887    3.6295  -63.4329 H         1 MOL         0.0322
     51 H15       -47.0488    4.8386  -62.2979 H         1 MOL         0.0322
     52 H16       -48.1167    3.5460  -61.7097 H         1 MOL         0.0322
     53 H17       -45.7351   -4.1311  -57.9417 H         1 MOL         0.0460
     54 H18       -44.3984   -3.0443  -57.4516 H         1 MOL         0.0460
     55 H19       -44.5218   -4.6822  -56.7571 H         1 MOL         0.0460
     56 H20       -39.0587  -11.3050  -61.9950 H         1 MOL         0.0471
     57 H21       -39.2865  -12.2631  -60.4989 H         1 MOL         0.0471
     58 H22       -38.4943  -10.6669  -60.4287 H         1 MOL         0.0471
     59 H23       -43.2693    0.6399  -58.5038 H         1 MOL         0.0653
     60 H24       -44.2729   -0.7904  -58.6167 H         1 MOL         0.0653
     61 H25       -42.7225    0.5000  -60.9329 H         1 MOL         0.0322
     62 H26       -43.7306   -0.9507  -61.0886 H         1 MOL         0.0322
     63 H27       -41.2465   -0.6997  -59.1377 H         1 MOL         0.0410
     64 H28       -42.0569   -1.3862  -57.7063 H         1 MOL         0.0410
     65 H29       -40.9817   -7.9263  -55.7817 H         1 MOL         0.4556
@<TRIPOS>BOND
     1    1    7 1
     2    1   27 3
     3    2    8 ar
     4    2   12 ar
     5    3    9 ar
     6    3   13 ar
     7    4   10 ar
     8    4   14 ar
     9    5   15 ar
    10    5   16 ar
    11    6    7 ar
    12    6   28 ar
    13    7   11 ar
    14    8    9 ar
    15    8   11 ar
    16    9   28 ar
    17   10   15 ar
    18   10   31 1
    19   11   31 1
    20   12   13 ar
    21   12   32 1
    22   13   34 1
    23   14   16 ar
    24   14   33 1
    25   15   35 1
    26   16   36 1
    27   17   19 1
    28   17   29 1
    29   18   20 1
    30   18   29 1
    31   19   30 1
    32   20   30 1
    33   21   29 1
    34   22   32 1
    35   23   33 1
    36   24   25 1
    37   24   26 1
    38   25   30 1
    39   26   34 1
    40    2   37 1
    41    3   38 1
    42    4   39 1
    43    5   40 1
    44    6   41 1
    45   17   42 1
    46   17   43 1
    47   18   44 1
    48   18   45 1
    49   19   46 1
    50   19   47 1
    51   20   48 1
    52   20   49 1
    53   21   50 1
    54   21   51 1
    55   21   52 1
    56   22   53 1
    57   22   54 1
    58   22   55 1
    59   23   56 1
    60   23   57 1
    61   23   58 1
    62   24   59 1
    63   24   60 1
    64   25   61 1
    65   25   62 1
    66   26   63 1
    67   26   64 1
    68   31   65 1
