@<TRIPOS>MOLECULE
3-(2-imidazo[1,2-b]pyridazin-3-ylethynyl)-4-methyl-~{N}-[4-[(4-methylpiperazin-1-yl)methyl]-3-(trifluoromethyl)phenyl]benzamide
   66    70     0     0     0
SMALL
USER_CHARGES

@<TRIPOS>ATOM
      1 C1        -40.8315   -8.5079  -57.4145 C.1       1 MOL        -0.0730
      2 C2        -41.1953   -9.6487  -57.4974 C.1       1 MOL        -0.0200
      3 C3        -39.8434   -4.4448  -57.9970 C.ar      1 MOL        -0.1500
      4 C4        -38.8448   -5.3440  -57.6104 C.ar      1 MOL        -0.1500
      5 C5        -44.8052   -0.4465  -59.6079 C.ar      1 MOL        -0.1500
      6 C6        -44.1017   -1.5959  -59.2277 C.ar      1 MOL        -0.1500
      7 C7        -41.4581   -6.2323  -57.9503 C.ar      1 MOL        -0.1500
      8 C8        -42.0672   -0.5609  -59.9769 C.ar      1 MOL        -0.1500
      9 C9        -41.5729  -11.5159  -59.1034 C.2       1 MOL         0.0772
     10 C10       -40.4555   -7.1354  -57.5676 C.ar      1 MOL         0.0730
     11 C11       -41.6452  -10.9442  -57.8538 C.2       1 MOL        -0.1316
     12 C12       -41.1621   -4.8823  -58.1653 C.ar      1 MOL         0.0862
     13 C13       -39.1359   -6.6960  -57.3843 C.ar      1 MOL        -0.1435
     14 C14       -44.1506    0.6588  -60.1822 C.ar      1 MOL        -0.1435
     15 C15       -42.7515    0.6037  -60.3493 C.ar      1 MOL        -0.1435
     16 C16       -42.7243   -1.6618  -59.4208 C.ar      1 MOL         0.1170
     17 C17       -42.5194  -12.9781  -57.8729 C.2       1 MOL         0.1415
     18 C18       -43.1606  -14.0897  -57.2805 C.2       1 MOL        -0.1050
     19 C19       -43.4766  -14.0547  -55.9818 C.2       1 MOL        -0.1356
     20 C20       -43.1211  -12.8204  -55.2416 C.2       1 MOL         0.3756
     21 C21       -42.2842   -3.9753  -58.5574 C.2       1 MOL         0.5438
     22 C22       -44.5402    1.9177  -64.3395 C.3       1 MOL         0.2700
     23 C23       -44.4946    4.1927  -63.5063 C.3       1 MOL         0.2700
     24 C24       -45.1367    1.4514  -63.0069 C.3       1 MOL         0.2700
     25 C25       -45.0990    3.7122  -62.1821 C.3       1 MOL         0.2700
     26 C26       -38.0314   -7.6267  -56.9721 C.3       1 MOL         0.1435
     27 C27       -44.2359    3.7573  -65.8605 C.3       1 MOL         0.2700
     28 C28       -44.9855    1.8629  -60.5878 C.3       1 MOL         0.4135
     29 C29       -41.9258    1.7215  -60.9302 C.3       1 MOL         1.1635
     30 N1        -42.1142  -12.7716  -59.1087 N.2       1 MOL        -0.5653
     31 N2        -42.5398  -11.7690  -55.7309 N.2       1 MOL        -0.6520
     32 N3        -42.2515  -11.8863  -57.0600 N.pl3     1 MOL         0.5052
     33 N4        -44.8801    3.3184  -64.6225 N.3       1 MOL        -0.8100
     34 N5        -44.6750    2.3361  -61.9374 N.3       1 MOL        -0.8100
     35 N6        -41.8996   -2.7586  -59.0889 N.am      1 MOL        -0.5470
     36 O1        -43.4369   -4.3622  -58.3926 O.2       1 MOL        -0.5700
     37 F1        -40.6105    1.6609  -60.5727 F         1 MOL        -0.3400
     38 F2        -41.9297    1.7151  -62.2911 F         1 MOL        -0.3400
     39 F3        -42.3338    2.9618  -60.5464 F         1 MOL        -0.3400
     40 H1        -39.5470   -3.4116  -58.1505 H         1 MOL         0.1500
     41 H2        -37.8294   -4.9727  -57.4888 H         1 MOL         0.1500
     42 H3        -45.8823   -0.4236  -59.4513 H         1 MOL         0.1500
     43 H4        -44.6686   -2.4096  -58.7899 H         1 MOL         0.1500
     44 H5        -42.4745   -6.5982  -58.0867 H         1 MOL         0.1500
     45 H6        -40.9894   -0.6089  -60.1250 H         1 MOL         0.1500
     46 H7        -41.1598  -11.0775  -60.0011 H         1 MOL         0.1500
     47 H8        -43.3966  -14.9553  -57.8891 H         1 MOL         0.1500
     48 H9        -43.9719  -14.8676  -55.4690 H         1 MOL         0.1500
     49 H10       -43.3919  -12.8291  -54.1734 H         1 MOL         0.0600
     50 H11       -43.4501    1.7804  -64.3176 H         1 MOL         0.0000
     51 H12       -44.9291    1.2737  -65.1369 H         1 MOL         0.0000
     52 H13       -44.8449    5.2139  -63.6976 H         1 MOL         0.0000
     53 H14       -43.4004    4.2377  -63.4087 H         1 MOL         0.0000
     54 H15       -46.2329    1.4358  -63.0599 H         1 MOL         0.0000
     55 H16       -44.8043    0.4210  -62.8356 H         1 MOL         0.0000
     56 H17       -44.7332    4.3718  -61.3859 H         1 MOL         0.0000
     57 H18       -46.1932    3.7940  -62.2010 H         1 MOL         0.0000
     58 H19       -38.3145   -8.1803  -56.0708 H         1 MOL         0.0000
     59 H20       -37.8041   -8.3295  -57.7789 H         1 MOL         0.0000
     60 H21       -37.1146   -7.0762  -56.7331 H         1 MOL         0.0000
     61 H22       -44.5282    4.7847  -66.1029 H         1 MOL         0.0000
     62 H23       -44.5517    3.1305  -66.7014 H         1 MOL         0.0000
     63 H24       -43.1420    3.7173  -65.7948 H         1 MOL         0.0000
     64 H25       -46.0580    1.6450  -60.5046 H         1 MOL         0.0000
     65 H26       -44.7708    2.6445  -59.8471 H         1 MOL         0.0000
     66 H27       -40.9153   -2.6107  -59.2886 H         1 MOL         0.3700
@<TRIPOS>BOND
     1    1    2 3
     2    1   10 1
     3    2   11 1
     4    3    4 ar
     5    3   12 ar
     6    4   13 ar
     7    5    6 ar
     8    5   14 ar
     9    6   16 ar
    10    7   10 ar
    11    7   12 ar
    12    8   15 ar
    13    8   16 ar
    14    9   11 2
    15    9   30 1
    16   10   13 ar
    17   11   32 1
    18   12   21 1
    19   13   26 1
    20   14   15 ar
    21   14   28 1
    22   15   29 1
    23   16   35 1
    24   17   18 1
    25   17   30 2
    26   17   32 1
    27   18   19 2
    28   19   20 1
    29   20   31 2
    30   21   35 am
    31   21   36 2
    32   22   24 1
    33   22   33 1
    34   23   25 1
    35   23   33 1
    36   24   34 1
    37   25   34 1
    38   27   33 1
    39   28   34 1
    40   29   37 1
    41   29   38 1
    42   29   39 1
    43   31   32 1
    44    3   40 1
    45    4   41 1
    46    5   42 1
    47    6   43 1
    48    7   44 1
    49    8   45 1
    50    9   46 1
    51   18   47 1
    52   19   48 1
    53   20   49 1
    54   22   50 1
    55   22   51 1
    56   23   52 1
    57   23   53 1
    58   24   54 1
    59   24   55 1
    60   25   56 1
    61   25   57 1
    62   26   58 1
    63   26   59 1
    64   26   60 1
    65   27   61 1
    66   27   62 1
    67   27   63 1
    68   28   64 1
    69   28   65 1
    70   35   66 1
