@<TRIPOS>MOLECULE
~{N}-(2-chloro-6-methyl-phenyl)-2-[[6-[4-(2-hydroxyethyl)piperazin-1-yl]-2-methyl-pyrimidin-4-yl]amino]thiazole-5-carboxamide
   59    62     0     0     0
SMALL
USER_CHARGES

@<TRIPOS>ATOM
      1 C1        -44.6075  -20.0397  -54.9546 C.ar      1 MOL        -0.1287
      2 C2        -45.2573  -19.4291  -56.0273 C.ar      1 MOL        -0.1206
      3 C3        -43.5137  -19.4155  -54.3550 C.ar      1 MOL        -0.1156
      4 C4        -41.6343  -10.0647  -59.8155 C.ar      1 MOL        -0.4498
      5 C5        -42.3603  -13.9228  -57.8462 C.2       1 MOL         0.4038
      6 C6        -44.8131  -18.1944  -56.5004 C.ar      1 MOL        -0.0505
      7 C7        -43.7192  -17.5702  -55.9009 C.ar      1 MOL         0.0591
      8 C8        -43.0695  -18.1808  -54.8281 C.ar      1 MOL        -0.0121
      9 C9        -42.7279  -13.9721  -56.5178 C.2       1 MOL        -0.3015
     10 C10       -41.1630   -9.2831  -60.8505 C.ar      1 MOL         0.6913
     11 C11       -41.2419   -9.6795  -58.5499 C.ar      1 MOL         0.7029
     12 C12       -40.0567   -7.9332  -59.3942 C.ar      1 MOL         0.6974
     13 C13       -42.0351  -11.8148  -57.3356 C.2       1 MOL         0.6643
     14 C14       -43.1802  -15.0693  -55.7307 C.2       1 MOL         0.7225
     15 C15       -41.7960  -11.0474  -62.4721 C.3       1 MOL         0.2004
     16 C16       -41.0493   -8.8140  -63.2614 C.3       1 MOL         0.2004
     17 C17       -42.6543  -11.1613  -63.7345 C.3       1 MOL         0.1686
     18 C18       -41.9324   -8.9996  -64.4974 C.3       1 MOL         0.1686
     19 C19       -45.5316  -17.5665  -57.6508 C.3       1 MOL        -0.0586
     20 C20       -39.1806   -6.7495  -59.1602 C.3       1 MOL        -0.1352
     21 C21       -42.8539  -10.5806  -66.0632 C.3       1 MOL         0.1713
     22 C22       -41.9968  -10.2870  -67.2810 C.3       1 MOL         0.1287
     23 N1        -41.9631  -12.6865  -58.3170 N.2       1 MOL        -0.6461
     24 N2        -40.3693   -8.2062  -60.6753 N.ar      1 MOL        -0.7652
     25 N3        -40.4506   -8.6152  -58.3018 N.ar      1 MOL        -0.7141
     26 N4        -41.5381   -9.6404  -62.1504 N.pl3     1 MOL        -0.7666
     27 N5        -42.0535  -10.4197  -64.8498 N.3       1 MOL        -0.7440
     28 N6        -43.2759  -16.3173  -56.3943 N.am      1 MOL        -0.4686
     29 N7        -41.7042  -10.4556  -57.4590 N.pl3     1 MOL        -0.8342
     30 O1        -43.5132  -14.9526  -54.5263 O.2       1 MOL        -0.5936
     31 O2        -42.7691  -10.4792  -68.4593 O.3       1 MOL        -0.6052
     32 S1        -42.5720  -12.4134  -55.8195 S.3       1 MOL        -0.0611
     33 Cl1       -41.7100  -17.4467  -54.0542 Cl        1 MOL        -0.1016
     34 H1        -44.9541  -21.0007  -54.5857 H         1 MOL         0.1385
     35 H2        -46.1080  -19.9243  -56.4883 H         1 MOL         0.1378
     36 H3        -43.0173  -19.9062  -53.5215 H         1 MOL         0.1483
     37 H4        -42.2713  -10.9252  -59.9855 H         1 MOL         0.1533
     38 H5        -42.3630  -14.7661  -58.5245 H         1 MOL         0.0463
     39 H6        -42.3221  -11.5348  -61.6418 H         1 MOL         0.0520
     40 H7        -40.8446  -11.5756  -62.6189 H         1 MOL         0.0520
     41 H8        -40.0125   -9.0874  -63.4986 H         1 MOL         0.0520
     42 H9        -41.0569   -7.7547  -62.9761 H         1 MOL         0.0520
     43 H10       -42.7422  -12.2235  -63.9934 H         1 MOL         0.0406
     44 H11       -43.6672  -10.7917  -63.5243 H         1 MOL         0.0406
     45 H12       -42.9223   -8.5613  -64.3114 H         1 MOL         0.0406
     46 H13       -41.4803   -8.4433  -65.3275 H         1 MOL         0.0406
     47 H14       -46.3451  -16.9290  -57.2869 H         1 MOL         0.0550
     48 H15       -44.8511  -16.9553  -58.2557 H         1 MOL         0.0550
     49 H16       -45.9543  -18.3288  -58.3163 H         1 MOL         0.0550
     50 H17       -39.7873   -5.8456  -59.0254 H         1 MOL         0.0649
     51 H18       -38.5564   -6.8856  -58.2674 H         1 MOL         0.0649
     52 H19       -38.4968   -6.5867  -60.0037 H         1 MOL         0.0649
     53 H20       -43.7071   -9.8973  -66.0043 H         1 MOL         0.0481
     54 H21       -43.2213  -11.6107  -66.0954 H         1 MOL         0.0481
     55 H22       -41.1481  -10.9770  -67.3170 H         1 MOL         0.0292
     56 H23       -41.6208   -9.2588  -67.2702 H         1 MOL         0.0292
     57 H24       -42.9835  -16.3138  -57.3683 H         1 MOL         0.3237
     58 H25       -41.8164   -9.9206  -56.6057 H         1 MOL         0.4580
     59 H26       -42.1867  -10.2821  -69.2104 H         1 MOL         0.4026
@<TRIPOS>BOND
     1    1    2 ar
     2    1    3 ar
     3    2    6 ar
     4    3    8 ar
     5    4   10 ar
     6    4   11 ar
     7    5    9 2
     8    5   23 1
     9    6    7 ar
    10    6   19 1
    11    7    8 ar
    12    7   28 1
    13    8   33 1
    14    9   14 1
    15    9   32 1
    16   10   24 ar
    17   10   26 1
    18   11   25 ar
    19   11   29 1
    20   12   20 1
    21   12   24 ar
    22   12   25 ar
    23   13   23 2
    24   13   29 1
    25   13   32 1
    26   14   28 am
    27   14   30 2
    28   15   17 1
    29   15   26 1
    30   16   18 1
    31   16   26 1
    32   17   27 1
    33   18   27 1
    34   21   22 1
    35   21   27 1
    36   22   31 1
    37    1   34 1
    38    2   35 1
    39    3   36 1
    40    4   37 1
    41    5   38 1
    42   15   39 1
    43   15   40 1
    44   16   41 1
    45   16   42 1
    46   17   43 1
    47   17   44 1
    48   18   45 1
    49   18   46 1
    50   19   47 1
    51   19   48 1
    52   19   49 1
    53   20   50 1
    54   20   51 1
    55   20   52 1
    56   21   53 1
    57   21   54 1
    58   22   55 1
    59   22   56 1
    60   28   57 1
    61   29   58 1
    62   31   59 1
