@<TRIPOS>MOLECULE
~{N}-methyl-2-[[3-[(~{E})-2-(2-pyridyl)vinyl]-1~{H}-indazol-6-yl]sulfanyl]benzamide
   46    49     0     0     0
SMALL
USER_CHARGES

@<TRIPOS>ATOM
      1 C1        -40.4767  -10.2670  -55.5567 C.ar      1 MOL        -0.1500
      2 C2        -41.3312  -10.5022  -54.4853 C.ar      1 MOL        -0.1500
      3 C3        -39.7349  -17.9342  -47.3816 C.ar      1 MOL        -0.1500
      4 C4        -40.1619  -18.2348  -46.0955 C.ar      1 MOL        -0.1500
      5 C5        -39.8417  -11.4934  -49.4430 C.ar      1 MOL        -0.1500
      6 C6        -39.4562   -9.3269  -55.4367 C.ar      1 MOL        -0.1500
      7 C7        -41.1628   -9.8036  -53.2879 C.ar      1 MOL        -0.1500
      8 C8        -39.5956  -10.5083  -50.4114 C.ar      1 MOL        -0.1500
      9 C9        -39.8380  -16.6299  -47.8580 C.ar      1 MOL        -0.1500
     10 C10       -41.0687   -8.9531  -49.2758 C.ar      1 MOL        -0.1500
     11 C11       -40.6778  -17.2043  -45.3309 C.ar      1 MOL         0.1600
     12 C12       -40.7189  -11.2174  -48.3745 C.ar      1 MOL         0.0000
     13 C13       -39.2813   -8.6223  -54.2355 C.ar      1 MOL         0.0862
     14 C14       -41.2951   -9.9514  -48.3237 C.ar      1 MOL        -0.1516
     15 C15       -40.2100   -9.2542  -50.3409 C.ar      1 MOL         0.1015
     16 C16       -40.1317   -8.8602  -53.1371 C.ar      1 MOL         0.1015
     17 C17       -40.3722  -15.6529  -47.0202 C.ar      1 MOL         0.3384
     18 C18       -41.2446  -11.9023  -47.2292 C.2       1 MOL         0.2428
     19 C19       -40.5031  -14.2691  -47.5122 C.2       1 MOL        -0.1784
     20 C20       -41.0137  -13.2544  -46.7962 C.2       1 MOL        -0.1040
     21 C21       -38.1977   -7.6110  -54.1888 C.2       1 MOL         0.5438
     22 C22       -35.8112   -7.1846  -54.6595 C.3       1 MOL         0.3001
     23 N1        -40.7927  -15.9271  -45.7605 N.ar      1 MOL        -0.6200
     24 N2        -42.0603  -11.1005  -46.5245 N.2       1 MOL        -0.7068
     25 N3        -42.0690   -9.9494  -47.2014 N.pl3     1 MOL         0.2996
     26 N4        -36.9500   -8.0690  -54.5757 N.am      1 MOL        -0.7301
     27 O1        -38.4611   -6.4617  -53.8494 O.2       1 MOL        -0.5700
     28 S1        -39.9321   -7.9924  -51.5770 S.3       1 MOL        -0.2030
     29 H1        -40.6094  -10.8098  -56.4877 H         1 MOL         0.1500
     30 H2        -42.1319  -11.2301  -54.5792 H         1 MOL         0.1500
     31 H3        -39.3237  -18.7138  -48.0159 H         1 MOL         0.1500
     32 H4        -40.0938  -19.2432  -45.7052 H         1 MOL         0.1500
     33 H5        -39.3456  -12.4525  -49.5451 H         1 MOL         0.1500
     34 H6        -38.8083   -9.1477  -56.2911 H         1 MOL         0.1500
     35 H7        -41.8547  -10.0156  -52.4759 H         1 MOL         0.1500
     36 H8        -38.9172  -10.7508  -51.2268 H         1 MOL         0.1500
     37 H9        -39.5062  -16.3994  -48.8660 H         1 MOL         0.1500
     38 H10       -41.5540   -7.9858  -49.1855 H         1 MOL         0.1500
     39 H11       -41.0264  -17.3831  -44.3192 H         1 MOL         0.1500
     40 H12       -40.1856  -14.1210  -48.5370 H         1 MOL         0.1500
     41 H13       -41.3551  -13.4648  -45.7837 H         1 MOL         0.1500
     42 H14       -35.8685   -6.6378  -55.6045 H         1 MOL         0.0000
     43 H15       -34.8973   -7.7810  -54.6303 H         1 MOL         0.0000
     44 H16       -35.8248   -6.4739  -53.8288 H         1 MOL         0.0000
     45 H17       -42.6338   -9.1895  -46.8436 H         1 MOL         0.2700
     46 H18       -36.8230   -9.0392  -54.8483 H         1 MOL         0.3700
@<TRIPOS>BOND
     1    1    2 ar
     2    1    6 ar
     3    2    7 ar
     4    3    4 ar
     5    3    9 ar
     6    4   11 ar
     7    5    8 ar
     8    5   12 ar
     9    6   13 ar
    10    7   16 ar
    11    8   15 ar
    12    9   17 ar
    13   10   14 ar
    14   10   15 ar
    15   11   23 ar
    16   12   14 ar
    17   12   18 1
    18   13   16 ar
    19   13   21 1
    20   14   25 1
    21   15   28 1
    22   16   28 1
    23   17   19 1
    24   17   23 ar
    25   18   20 1
    26   18   24 2
    27   19   20 2
    28   21   26 am
    29   21   27 2
    30   22   26 1
    31   24   25 1
    32    1   29 1
    33    2   30 1
    34    3   31 1
    35    4   32 1
    36    5   33 1
    37    6   34 1
    38    7   35 1
    39    8   36 1
    40    9   37 1
    41   10   38 1
    42   11   39 1
    43   19   40 1
    44   20   41 1
    45   22   42 1
    46   22   43 1
    47   22   44 1
    48   25   45 1
    49   26   46 1
