@<TRIPOS>MOLECULE
~{N}-(3-ethynylphenyl)-6,7-bis(2-methoxyethoxy)quinazolin-4-amine
   52    54     0     0     0
SMALL
USER_CHARGES

@<TRIPOS>ATOM
      1 C1        -37.6191   -4.1265  -59.2814 C.1       1 MOL        -0.1333
      2 C2        -38.6557   -4.6096  -58.9155 C.1       1 MOL        -0.1268
      3 C3        -42.2393   -4.9539  -57.9690 C.ar      1 MOL        -0.1106
      4 C4        -41.0348   -4.3932  -58.3934 C.ar      1 MOL        -0.1283
      5 C5        -42.2986   -6.3061  -57.6316 C.ar      1 MOL        -0.1307
      6 C6        -39.9487   -6.5368  -58.1433 C.ar      1 MOL        -0.1551
      7 C7        -41.8939  -11.1808  -57.8814 C.ar      1 MOL        -0.1186
      8 C8        -43.4717  -12.4887  -56.0062 C.ar      1 MOL        -0.2564
      9 C9        -43.1821   -9.2378  -54.5216 C.ar      1 MOL         0.6704
     10 C10       -39.8895   -5.1846  -58.4806 C.ar      1 MOL         0.0467
     11 C11       -42.3341  -10.5082  -56.7282 C.ar      1 MOL        -0.3025
     12 C12       -43.1321  -11.1583  -55.7727 C.ar      1 MOL         0.4581
     13 C13       -41.1533   -7.0975  -57.7188 C.ar      1 MOL         0.1660
     14 C14       -42.2480  -12.5102  -58.0893 C.ar      1 MOL         0.0835
     15 C15       -43.0379  -13.1645  -57.1505 C.ar      1 MOL         0.1515
     16 C16       -42.0156   -9.1798  -56.4603 C.ar      1 MOL         0.7169
     17 C17       -43.4664  -14.5254  -62.7082 C.3       1 MOL         0.1162
     18 C18       -43.8808  -18.5071  -57.8556 C.3       1 MOL         0.1202
     19 C19       -41.6155  -12.3631  -60.3771 C.3       1 MOL         0.1265
     20 C20       -43.5998  -15.2532  -56.1619 C.3       1 MOL         0.1161
     21 C21       -41.8522  -13.2219  -61.6044 C.3       1 MOL         0.1180
     22 C22       -43.2788  -16.7016  -56.4771 C.3       1 MOL         0.1233
     23 N1        -43.5585  -10.5247  -54.6662 N.ar      1 MOL        -0.7145
     24 N2        -42.4254   -8.5155  -55.3634 N.ar      1 MOL        -0.7616
     25 N3        -41.2135   -8.4583  -57.3792 N.pl3     1 MOL        -0.7646
     26 O1        -41.8183  -13.1556  -59.2082 O.3       1 MOL        -0.3242
     27 O2        -43.3969  -14.4661  -57.3337 O.3       1 MOL        -0.3103
     28 O3        -43.1809  -13.7286  -61.5671 O.3       1 MOL        -0.4209
     29 O4        -44.1520  -17.1577  -57.5032 O.3       1 MOL        -0.4269
     30 H1        -36.6995   -3.6986  -59.6060 H         1 MOL         0.1679
     31 H2        -43.1311   -4.3378  -57.9010 H         1 MOL         0.1379
     32 H3        -41.0045   -3.3376  -58.6528 H         1 MOL         0.1416
     33 H4        -43.2425   -6.7327  -57.3020 H         1 MOL         0.1512
     34 H5        -39.0575   -7.1580  -58.2099 H         1 MOL         0.1397
     35 H6        -41.2758  -10.6848  -58.6261 H         1 MOL         0.1429
     36 H7        -44.0896  -13.0179  -55.2823 H         1 MOL         0.1673
     37 H8        -43.5289   -8.7331  -53.6281 H         1 MOL         0.0545
     38 H9        -44.4921  -14.8970  -62.6467 H         1 MOL         0.0357
     39 H10       -42.7660  -15.3632  -62.7531 H         1 MOL         0.0357
     40 H11       -43.3564  -13.9127  -63.6061 H         1 MOL         0.0357
     41 H12       -44.5680  -18.8237  -58.6441 H         1 MOL         0.0354
     42 H13       -43.9996  -19.1452  -56.9762 H         1 MOL         0.0354
     43 H14       -42.8534  -18.5798  -58.2200 H         1 MOL         0.0354
     44 H15       -42.3143  -11.5216  -60.3438 H         1 MOL         0.0523
     45 H16       -40.5875  -11.9896  -60.3637 H         1 MOL         0.0523
     46 H17       -42.9458  -14.8667  -55.3743 H         1 MOL         0.0609
     47 H18       -44.6452  -15.1504  -55.8569 H         1 MOL         0.0609
     48 H19       -41.1637  -14.0723  -61.6298 H         1 MOL         0.0444
     49 H20       -41.7376  -12.6275  -62.5156 H         1 MOL         0.0444
     50 H21       -43.4235  -17.3381  -55.5985 H         1 MOL         0.0457
     51 H22       -42.2497  -16.7965  -56.8355 H         1 MOL         0.0457
     52 H23       -40.5592   -9.0437  -57.8848 H         1 MOL         0.4489
@<TRIPOS>BOND
     1    1    2 3
     2    2   10 1
     3    3    4 ar
     4    3    5 ar
     5    4   10 ar
     6    5   13 ar
     7    6   10 ar
     8    6   13 ar
     9    7   11 ar
    10    7   14 ar
    11    8   12 ar
    12    8   15 ar
    13    9   23 ar
    14    9   24 ar
    15   11   12 ar
    16   11   16 ar
    17   12   23 ar
    18   13   25 1
    19   14   15 ar
    20   14   26 1
    21   15   27 1
    22   16   24 ar
    23   16   25 1
    24   17   28 1
    25   18   29 1
    26   19   21 1
    27   19   26 1
    28   20   22 1
    29   20   27 1
    30   21   28 1
    31   22   29 1
    32    1   30 1
    33    3   31 1
    34    4   32 1
    35    5   33 1
    36    6   34 1
    37    7   35 1
    38    8   36 1
    39    9   37 1
    40   17   38 1
    41   17   39 1
    42   17   40 1
    43   18   41 1
    44   18   42 1
    45   18   43 1
    46   19   44 1
    47   19   45 1
    48   20   46 1
    49   20   47 1
    50   21   48 1
    51   21   49 1
    52   22   50 1
    53   22   51 1
    54   25   52 1
