@<TRIPOS>MOLECULE
4-(2,4-dichloro-5-methoxy-anilino)-6-methoxy-7-[3-(4-methylpiperazin-1-yl)propoxy]quinoline-3-carbonitrile
   65    68     0     0     0
SMALL
USER_CHARGES

@<TRIPOS>ATOM
      1 C1        -41.3010   -6.0007  -53.0413 C.1       1 MOL         0.2440
      2 C2        -40.0076  -10.3457  -51.1262 C.ar      1 MOL        -0.1135
      3 C3        -40.6504   -9.3462  -48.6183 C.ar      1 MOL        -0.2141
      4 C4        -38.0101   -8.0446  -53.6046 C.ar      1 MOL        -0.1806
      5 C5        -37.9053   -9.1121  -56.1799 C.ar      1 MOL        -0.0838
      6 C6        -41.4102   -6.4834  -50.6614 C.ar      1 MOL         0.4607
      7 C7        -41.1152   -6.8983  -51.9442 C.ar      1 MOL        -0.1707
      8 C8        -40.4824   -9.0297  -50.9947 C.ar      1 MOL        -0.1738
      9 C9        -40.8111   -8.5146  -49.7232 C.ar      1 MOL         0.4310
     10 C10       -39.1479   -8.6239  -54.1662 C.ar      1 MOL         0.1952
     11 C11       -40.6442   -8.1931  -52.1073 C.ar      1 MOL         0.2624
     12 C12       -39.8563  -11.1553  -50.0042 C.ar      1 MOL         0.0881
     13 C13       -40.1783  -10.6546  -48.7488 C.ar      1 MOL         0.1210
     14 C14       -36.8199   -7.9989  -54.3306 C.ar      1 MOL         0.1334
     15 C15       -39.0955   -9.1577  -55.4538 C.ar      1 MOL        -0.0295
     16 C16       -36.7676   -8.5327  -55.6182 C.ar      1 MOL        -0.0184
     17 C17       -40.4097  -17.5094  -47.3257 C.3       1 MOL         0.1674
     18 C18       -39.9875  -17.5015  -44.9513 C.3       1 MOL         0.1674
     19 C19       -40.1779  -15.9952  -47.3717 C.3       1 MOL         0.1711
     20 C20       -39.7545  -15.9875  -44.9981 C.3       1 MOL         0.1711
     21 C21       -39.8672  -19.5668  -46.1906 C.3       1 MOL         0.1580
     22 C22       -37.9830  -12.6185  -50.0775 C.3       1 MOL         0.1163
     23 C23       -35.5394   -6.0284  -53.9656 C.3       1 MOL         0.1155
     24 C24       -41.4473  -13.1832  -46.8003 C.3       1 MOL        -0.0888
     25 C25       -40.3008  -13.9305  -46.1319 C.3       1 MOL         0.1796
     26 C26       -41.2121  -11.6790  -46.8680 C.3       1 MOL         0.1327
     27 N1        -41.4519   -5.2721  -53.9319 N.1       1 MOL        -0.3586
     28 N2        -41.2684   -7.2586  -49.5619 N.ar      1 MOL        -0.6627
     29 N3        -39.6419  -18.1234  -46.2355 N.3       1 MOL        -0.7336
     30 N4        -40.5241  -15.3742  -46.0874 N.3       1 MOL        -0.7378
     31 N5        -40.3299   -8.6548  -53.4116 N.pl3     1 MOL        -0.6909
     32 O1        -39.3951  -12.4280  -50.1484 O.3       1 MOL        -0.3321
     33 O2        -35.7235   -7.4268  -53.7571 O.3       1 MOL        -0.3373
     34 O3        -40.0375  -11.4336  -47.6300 O.3       1 MOL        -0.3346
     35 Cl1       -40.4813   -9.8839  -56.1864 Cl        1 MOL        -0.0755
     36 Cl2       -35.3087   -8.4896  -56.5381 Cl        1 MOL        -0.0644
     37 H1        -39.7490  -10.7594  -52.0986 H         1 MOL         0.1532
     38 H2        -40.8974   -8.9712  -47.6260 H         1 MOL         0.1655
     39 H3        -38.0456   -7.6269  -52.6008 H         1 MOL         0.1571
     40 H4        -37.8637   -9.5282  -57.1844 H         1 MOL         0.1657
     41 H5        -41.7836   -5.4837  -50.4573 H         1 MOL         0.0371
     42 H6        -41.4829  -17.7151  -47.2132 H         1 MOL         0.0377
     43 H7        -40.0952  -17.9356  -48.2861 H         1 MOL         0.0377
     44 H8        -39.3608  -17.9221  -44.1555 H         1 MOL         0.0377
     45 H9        -41.0336  -17.7061  -44.6857 H         1 MOL         0.0377
     46 H10       -39.1318  -15.7897  -47.6372 H         1 MOL         0.0370
     47 H11       -40.8047  -15.5747  -48.1675 H         1 MOL         0.0370
     48 H12       -40.0678  -15.5610  -44.0374 H         1 MOL         0.0370
     49 H13       -38.6814  -15.7822  -45.1121 H         1 MOL         0.0370
     50 H14       -39.2906  -20.0119  -45.3755 H         1 MOL         0.0322
     51 H15       -39.5577  -20.0271  -47.1328 H         1 MOL         0.0322
     52 H16       -40.9274  -19.7790  -46.0285 H         1 MOL         0.0322
     53 H17       -37.7505  -13.6782  -50.2080 H         1 MOL         0.0460
     54 H18       -37.6157  -12.2706  -49.1087 H         1 MOL         0.0460
     55 H19       -37.5061  -12.0424  -50.8740 H         1 MOL         0.0460
     56 H20       -34.6303   -5.6999  -53.4559 H         1 MOL         0.0471
     57 H21       -36.4042   -5.4843  -53.5778 H         1 MOL         0.0471
     58 H22       -35.4425   -5.8385  -55.0371 H         1 MOL         0.0471
     59 H23       -41.5850  -13.5674  -47.8187 H         1 MOL         0.0653
     60 H24       -42.3906  -13.3802  -46.2755 H         1 MOL         0.0653
     61 H25       -39.3718  -13.7685  -46.6873 H         1 MOL         0.0322
     62 H26       -40.1504  -13.5832  -45.1048 H         1 MOL         0.0322
     63 H27       -42.0499  -11.1677  -47.3521 H         1 MOL         0.0410
     64 H28       -41.0698  -11.2613  -45.8662 H         1 MOL         0.0410
     65 H29       -41.1150   -9.0893  -53.8804 H         1 MOL         0.4556
@<TRIPOS>BOND
     1    1    7 1
     2    1   27 3
     3    2    8 ar
     4    2   12 ar
     5    3    9 ar
     6    3   13 ar
     7    4   10 ar
     8    4   14 ar
     9    5   15 ar
    10    5   16 ar
    11    6    7 ar
    12    6   28 ar
    13    7   11 ar
    14    8    9 ar
    15    8   11 ar
    16    9   28 ar
    17   10   15 ar
    18   10   31 1
    19   11   31 1
    20   12   13 ar
    21   12   32 1
    22   13   34 1
    23   14   16 ar
    24   14   33 1
    25   15   35 1
    26   16   36 1
    27   17   19 1
    28   17   29 1
    29   18   20 1
    30   18   29 1
    31   19   30 1
    32   20   30 1
    33   21   29 1
    34   22   32 1
    35   23   33 1
    36   24   25 1
    37   24   26 1
    38   25   30 1
    39   26   34 1
    40    2   37 1
    41    3   38 1
    42    4   39 1
    43    5   40 1
    44    6   41 1
    45   17   42 1
    46   17   43 1
    47   18   44 1
    48   18   45 1
    49   19   46 1
    50   19   47 1
    51   20   48 1
    52   20   49 1
    53   21   50 1
    54   21   51 1
    55   21   52 1
    56   22   53 1
    57   22   54 1
    58   22   55 1
    59   23   56 1
    60   23   57 1
    61   23   58 1
    62   24   59 1
    63   24   60 1
    64   25   61 1
    65   25   62 1
    66   26   63 1
    67   26   64 1
    68   31   65 1
