@<TRIPOS>MOLECULE
4-[(4-methylpiperazin-1-yl)methyl]-~{N}-[4-methyl-3-[[4-(3-pyridyl)pyrimidin-2-yl]amino]phenyl]benzamide
   68    72     0     0     0
SMALL
USER_CHARGES

@<TRIPOS>ATOM
      1 C1        -44.4218   -8.1265  -55.4289 C.ar      1 MOL        -0.2506
      2 C2        -43.6343   -7.6836  -56.4858 C.ar      1 MOL        -0.0711
      3 C3        -43.7512  -14.2871  -56.1628 C.ar      1 MOL        -0.0933
      4 C4        -42.1990  -15.5811  -57.4868 C.ar      1 MOL        -0.0933
      5 C5        -43.9265  -15.3738  -55.3062 C.ar      1 MOL        -0.1271
      6 C6        -42.3742  -16.6679  -56.6302 C.ar      1 MOL        -0.1271
      7 C7        -42.0333  -12.2713  -62.9165 C.ar      1 MOL        -0.0880
      8 C8        -42.3128  -13.1270  -61.8510 C.ar      1 MOL        -0.1675
      9 C9        -41.0382   -6.7651  -57.9284 C.ar      1 MOL        -0.4095
     10 C10       -41.5132  -11.4564  -60.2996 C.ar      1 MOL        -0.1860
     11 C11       -44.0534   -9.3015  -54.7937 C.ar      1 MOL         0.4040
     12 C12       -40.2685   -6.4645  -59.0337 C.ar      1 MOL         0.4616
     13 C13       -42.2351   -9.5806  -56.1699 C.ar      1 MOL         0.4307
     14 C14       -42.5183   -8.4188  -56.8697 C.ar      1 MOL        -0.2733
     15 C15       -42.8875  -14.3908  -57.2532 C.ar      1 MOL        -0.1523
     16 C16       -43.2380  -16.5642  -55.5398 C.ar      1 MOL        -0.0603
     17 C17       -41.4936  -11.0082  -62.6735 C.ar      1 MOL        -0.1448
     18 C18       -42.0528  -12.7196  -60.5426 C.ar      1 MOL         0.0847
     19 C19       -41.2336  -10.6007  -61.3651 C.ar      1 MOL         0.1772
     20 C20       -41.6817   -7.9854  -57.9630 C.ar      1 MOL         0.5363
     21 C21       -40.8075   -8.4451  -60.0103 C.ar      1 MOL         0.8872
     22 C22       -42.7036  -13.2581  -58.1468 C.2       1 MOL         0.6835
     23 C23       -44.9460  -21.1452  -55.1600 C.3       1 MOL         0.1708
     24 C24       -46.5675  -19.4716  -55.7808 C.3       1 MOL         0.1708
     25 C25       -44.0621  -20.0581  -54.5388 C.3       1 MOL         0.1753
     26 C26       -45.6839  -18.3850  -55.1584 C.3       1 MOL         0.1753
     27 C27       -41.2042  -10.1120  -63.8334 C.3       1 MOL        -0.0528
     28 C28       -47.2028  -21.7967  -55.7055 C.3       1 MOL         0.1609
     29 C29       -43.4262  -17.7333  -54.6168 C.3       1 MOL         0.2165
     30 N1        -42.9765  -10.0426  -55.1381 N.ar      1 MOL        -0.6654
     31 N2        -40.1303   -7.2843  -60.0963 N.ar      1 MOL        -0.7391
     32 N3        -41.5883   -8.8532  -58.9918 N.ar      1 MOL        -0.7480
     33 N4        -46.3618  -20.7607  -55.1092 N.3       1 MOL        -0.7397
     34 N5        -44.2682  -18.7695  -55.2113 N.3       1 MOL        -0.7459
     35 N6        -40.6865   -9.3257  -61.1012 N.pl3     1 MOL        -0.7209
     36 N7        -42.3367  -13.5900  -59.4602 N.am      1 MOL        -0.4687
     37 O1        -42.8308  -12.0905  -57.7528 O.2       1 MOL        -0.5862
     38 H1        -45.2958   -7.5698  -55.1112 H         1 MOL         0.1463
     39 H2        -43.9023   -6.7644  -57.0007 H         1 MOL         0.1439
     40 H3        -44.2923  -13.3640  -55.9719 H         1 MOL         0.1467
     41 H4        -41.5235  -15.6734  -58.3333 H         1 MOL         0.1467
     42 H5        -44.6012  -15.2842  -54.4589 H         1 MOL         0.1452
     43 H6        -41.8334  -17.5915  -56.8195 H         1 MOL         0.1452
     44 H7        -42.2397  -12.5977  -63.9324 H         1 MOL         0.1366
     45 H8        -42.7336  -14.1091  -62.0516 H         1 MOL         0.1760
     46 H9        -41.1223   -6.0779  -57.0958 H         1 MOL         0.1589
     47 H10       -41.3101  -11.1390  -59.2788 H         1 MOL         0.1531
     48 H11       -44.6350   -9.6898  -53.9637 H         1 MOL         0.0247
     49 H12       -39.7252   -5.5278  -59.0973 H         1 MOL         0.0273
     50 H13       -41.3777  -10.1992  -56.4193 H         1 MOL         0.0334
     51 H14       -44.6278  -21.3329  -56.1945 H         1 MOL         0.0372
     52 H15       -44.7943  -22.0752  -54.5987 H         1 MOL         0.0372
     53 H16       -47.6153  -19.1639  -55.6789 H         1 MOL         0.0372
     54 H17       -46.3535  -19.5508  -56.8554 H         1 MOL         0.0372
     55 H18       -44.2757  -19.9781  -53.4642 H         1 MOL         0.0379
     56 H19       -43.0143  -20.3659  -54.6409 H         1 MOL         0.0379
     57 H20       -45.8362  -17.4545  -55.7187 H         1 MOL         0.0379
     58 H21       -46.0014  -18.1987  -54.1234 H         1 MOL         0.0379
     59 H22       -42.0789   -9.4922  -64.0613 H         1 MOL         0.0437
     60 H23       -40.3536   -9.4528  -63.6217 H         1 MOL         0.0437
     61 H24       -40.9441  -10.6927  -64.7269 H         1 MOL         0.0437
     62 H25       -48.2537  -21.4989  -55.6617 H         1 MOL         0.0323
     63 H26       -47.0814  -22.7395  -55.1652 H         1 MOL         0.0323
     64 H27       -46.9248  -21.9537  -56.7512 H         1 MOL         0.0323
     65 H28       -42.4609  -18.1862  -54.3655 H         1 MOL         0.0434
     66 H29       -43.8933  -17.4208  -53.6769 H         1 MOL         0.0434
     67 H30       -40.0904   -8.9791  -61.8460 H         1 MOL         0.4542
     68 H31       -42.2653  -14.5843  -59.6616 H         1 MOL         0.3224
@<TRIPOS>BOND
     1    1    2 ar
     2    1   11 ar
     3    2   14 ar
     4    3    5 ar
     5    3   15 ar
     6    4    6 ar
     7    4   15 ar
     8    5   16 ar
     9    6   16 ar
    10    7    8 ar
    11    7   17 ar
    12    8   18 ar
    13    9   12 ar
    14    9   20 ar
    15   10   18 ar
    16   10   19 ar
    17   11   30 ar
    18   12   31 ar
    19   13   14 ar
    20   13   30 ar
    21   14   20 1
    22   15   22 1
    23   16   29 1
    24   17   19 ar
    25   17   27 1
    26   18   36 1
    27   19   35 1
    28   20   32 ar
    29   21   31 ar
    30   21   32 ar
    31   21   35 1
    32   22   36 am
    33   22   37 2
    34   23   25 1
    35   23   33 1
    36   24   26 1
    37   24   33 1
    38   25   34 1
    39   26   34 1
    40   28   33 1
    41   29   34 1
    42    1   38 1
    43    2   39 1
    44    3   40 1
    45    4   41 1
    46    5   42 1
    47    6   43 1
    48    7   44 1
    49    8   45 1
    50    9   46 1
    51   10   47 1
    52   11   48 1
    53   12   49 1
    54   13   50 1
    55   23   51 1
    56   23   52 1
    57   24   53 1
    58   24   54 1
    59   25   55 1
    60   25   56 1
    61   26   57 1
    62   26   58 1
    63   27   59 1
    64   27   60 1
    65   27   61 1
    66   28   62 1
    67   28   63 1
    68   28   64 1
    69   29   65 1
    70   29   66 1
    71   35   67 1
    72   36   68 1
