@<TRIPOS>MOLECULE
~{N}-methyl-2-[[3-[(~{E})-2-(2-pyridyl)vinyl]-1~{H}-indazol-6-yl]sulfanyl]benzamide
   46    49     0     0     0
SMALL
USER_CHARGES

@<TRIPOS>ATOM
      1 C1        -43.9179   -8.9494  -62.0750 C.ar      1 MOL        -0.1467
      2 C2        -43.7743  -10.3367  -62.0839 C.ar      1 MOL        -0.0974
      3 C3        -43.7340  -20.3210  -55.6037 C.ar      1 MOL        -0.0928
      4 C4        -45.1119  -20.4130  -55.4414 C.ar      1 MOL        -0.2453
      5 C5        -42.4506  -14.1168  -58.2075 C.ar      1 MOL        -0.0799
      6 C6        -43.0040   -8.1580  -61.3790 C.ar      1 MOL        -0.0939
      7 C7        -42.7169  -10.9329  -61.3969 C.ar      1 MOL        -0.1576
      8 C8        -41.7397  -13.2820  -59.0788 C.ar      1 MOL        -0.1081
      9 C9        -43.1350  -19.0715  -55.7183 C.ar      1 MOL        -0.2368
     10 C10       -41.7060  -11.4865  -57.4346 C.ar      1 MOL        -0.0800
     11 C11       -45.8401  -19.2350  -55.4003 C.ar      1 MOL         0.3986
     12 C12       -42.7909  -13.6257  -56.9360 C.ar      1 MOL        -0.1733
     13 C13       -41.9466   -8.7542  -60.6920 C.ar      1 MOL        -0.1327
     14 C14       -42.4150  -12.3349  -56.5814 C.ar      1 MOL         0.0548
     15 C15       -41.3747  -11.9895  -58.6970 C.ar      1 MOL        -0.0350
     16 C16       -41.8030  -10.1416  -60.7009 C.ar      1 MOL         0.0286
     17 C17       -43.9517  -17.9535  -55.6649 C.ar      1 MOL         0.4459
     18 C18       -43.4729  -14.1156  -55.8015 C.2       1 MOL         0.3775
     19 C19       -43.3646  -16.6069  -55.7811 C.2       1 MOL        -0.1979
     20 C20       -44.0415  -15.4128  -55.7082 C.2       1 MOL        -0.1776
     21 C21       -41.0214   -7.8787  -59.9811 C.2       1 MOL         0.6672
     22 C22       -40.0541   -7.2646  -57.7554 C.3       1 MOL         0.0802
     23 N1        -45.2936  -18.0032  -55.5082 N.ar      1 MOL        -0.6566
     24 N2        -43.5324  -13.2258  -54.8082 N.2       1 MOL        -0.3948
     25 N3        -42.8852  -12.1598  -55.3078 N.pl3     1 MOL        -0.3861
     26 N4        -40.9092   -8.0666  -58.6006 N.am      1 MOL        -0.5743
     27 O1        -40.3912   -7.0022  -60.5944 O.2       1 MOL        -0.5831
     28 S1        -40.4683  -10.9570  -59.8385 S.3       1 MOL        -0.0864
     29 H1        -44.7422   -8.4854  -62.6090 H         1 MOL         0.1379
     30 H2        -44.4865  -10.9528  -62.6250 H         1 MOL         0.1360
     31 H3        -43.1286  -21.2217  -55.6395 H         1 MOL         0.1387
     32 H4        -45.5999  -21.3765  -55.3507 H         1 MOL         0.1440
     33 H5        -42.7272  -15.1195  -58.5191 H         1 MOL         0.1450
     34 H6        -43.1280   -7.0777  -61.3796 H         1 MOL         0.1409
     35 H7        -42.6251  -12.0161  -61.4161 H         1 MOL         0.1467
     36 H8        -41.4778  -13.6653  -60.0629 H         1 MOL         0.1542
     37 H9        -42.0600  -18.9919  -55.8450 H         1 MOL         0.1438
     38 H10       -41.4309  -10.4848  -57.1205 H         1 MOL         0.1523
     39 H11       -46.9180  -19.2521  -55.2768 H         1 MOL         0.0235
     40 H12       -42.2847  -16.5847  -55.9059 H         1 MOL         0.1617
     41 H13       -45.1362  -15.4831  -55.5297 H         1 MOL         0.1330
     42 H14       -39.0847   -7.7537  -57.6296 H         1 MOL         0.0431
     43 H15       -40.5119   -7.1326  -56.7712 H         1 MOL         0.0431
     44 H16       -39.8961   -6.2799  -58.2033 H         1 MOL         0.0431
     45 H17       -42.7978  -11.3372  -54.7242 H         1 MOL         0.4865
     46 H18       -41.4955   -8.7564  -58.1422 H         1 MOL         0.3101
@<TRIPOS>BOND
     1    1    2 ar
     2    1    6 ar
     3    2    7 ar
     4    3    4 ar
     5    3    9 ar
     6    4   11 ar
     7    5    8 ar
     8    5   12 ar
     9    6   13 ar
    10    7   16 ar
    11    8   15 ar
    12    9   17 ar
    13   10   14 ar
    14   10   15 ar
    15   11   23 ar
    16   12   14 ar
    17   12   18 1
    18   13   16 ar
    19   13   21 1
    20   14   25 1
    21   15   28 1
    22   16   28 1
    23   17   19 1
    24   17   23 ar
    25   18   20 1
    26   18   24 2
    27   19   20 2
    28   21   26 am
    29   21   27 2
    30   22   26 1
    31   24   25 1
    32    1   29 1
    33    2   30 1
    34    3   31 1
    35    4   32 1
    36    5   33 1
    37    6   34 1
    38    7   35 1
    39    8   36 1
    40    9   37 1
    41   10   38 1
    42   11   39 1
    43   19   40 1
    44   20   41 1
    45   22   42 1
    46   22   43 1
    47   22   44 1
    48   25   45 1
    49   26   46 1
