@<TRIPOS>MOLECULE
3-(2-imidazo[1,2-b]pyridazin-3-ylethynyl)-4-methyl-~{N}-[4-[(4-methylpiperazin-1-yl)methyl]-3-(trifluoromethyl)phenyl]benzamide
   66    70     0     0     0
SMALL
USER_CHARGES

@<TRIPOS>ATOM
      1 C1        -41.9091   -9.3321  -62.5503 C.1       1 MOL        -0.0824
      2 C2        -42.1538   -9.2554  -63.7239 C.1       1 MOL        -0.0641
      3 C3        -41.0663   -9.6495  -58.4266 C.ar      1 MOL        -0.0928
      4 C4        -40.7615   -8.4691  -59.1042 C.ar      1 MOL        -0.1469
      5 C5        -42.5200  -16.7722  -59.3738 C.ar      1 MOL        -0.0989
      6 C6        -42.2236  -15.4632  -59.7535 C.ar      1 MOL        -0.1357
      7 C7        -41.9225  -10.6040  -60.4743 C.ar      1 MOL        -0.0422
      8 C8        -42.6177  -14.7172  -57.4896 C.ar      1 MOL        -0.1519
      9 C9        -43.6109   -8.7591  -65.7265 C.2       1 MOL         0.3660
     10 C10       -41.6176   -9.4236  -61.1520 C.ar      1 MOL         0.0162
     11 C11       -42.4454   -9.1643  -65.1213 C.2       1 MOL        -0.0904
     12 C12       -41.6468  -10.7170  -59.1116 C.ar      1 MOL        -0.1640
     13 C13       -41.0371   -8.3561  -60.4669 C.ar      1 MOL        -0.0177
     14 C14       -42.8653  -17.0537  -58.0519 C.ar      1 MOL        -0.0515
     15 C15       -42.9141  -16.0262  -57.1099 C.ar      1 MOL        -0.1397
     16 C16       -42.2725  -14.4357  -58.8115 C.ar      1 MOL         0.0687
     17 C17       -42.2819   -9.2415  -67.3294 C.2       1 MOL         0.4191
     18 C18       -41.5935   -9.4950  -68.5389 C.2       1 MOL        -0.1548
     19 C19       -40.3318   -9.9390  -68.4998 C.2       1 MOL        -0.2590
     20 C20       -39.7340  -10.1377  -67.1578 C.2       1 MOL         0.3952
     21 C21       -41.9677  -11.9630  -58.3946 C.2       1 MOL         0.6862
     22 C22       -45.9935  -20.7795  -58.6683 C.3       1 MOL         0.1713
     23 C23       -46.9430  -18.7532  -57.7690 C.3       1 MOL         0.1713
     24 C24       -44.6069  -20.3460  -58.1804 C.3       1 MOL         0.1758
     25 C25       -45.5564  -18.3208  -57.2801 C.3       1 MOL         0.1758
     26 C26       -40.6976   -7.0757  -61.1602 C.3       1 MOL        -0.0720
     27 C27       -48.3695  -20.6279  -58.2848 C.3       1 MOL         0.1616
     28 C28       -43.1808  -18.4703  -57.6672 C.3       1 MOL         0.2178
     29 C29       -43.2792  -16.3043  -55.6886 C.3       1 MOL         0.6849
     30 N1        -43.5039   -8.8090  -67.0929 N.2       1 MOL        -0.6481
     31 N2        -40.3153   -9.9228  -66.0189 N.2       1 MOL        -0.4848
     32 N3        -41.5950   -9.4731  -66.1501 N.pl3     1 MOL         0.0695
     33 N4        -47.0477  -20.2168  -57.8156 N.3       1 MOL        -0.7397
     34 N5        -44.5029  -18.8823  -58.1344 N.3       1 MOL        -0.7542
     35 N6        -41.9742  -13.1265  -59.1905 N.am      1 MOL        -0.4697
     36 O1        -42.2394  -11.9511  -57.1959 O.2       1 MOL        -0.5824
     37 F1        -43.2783  -15.1917  -54.8976 F         1 MOL        -0.2397
     38 F2        -44.5233  -16.8466  -55.5420 F         1 MOL        -0.2397
     39 F3        -42.4226  -17.1814  -55.0906 F         1 MOL        -0.2397
     40 H1        -40.8459   -9.7264  -57.3647 H         1 MOL         0.1379
     41 H2        -40.3093   -7.6436  -58.5608 H         1 MOL         0.1431
     42 H3        -42.4801  -17.5658  -60.1154 H         1 MOL         0.1638
     43 H4        -41.9570  -15.2559  -60.7867 H         1 MOL         0.1821
     44 H5        -42.3751  -11.4406  -61.0036 H         1 MOL         0.1676
     45 H6        -42.6560  -13.9164  -56.7541 H         1 MOL         0.1446
     46 H7        -44.5253   -8.4317  -65.2519 H         1 MOL         0.0561
     47 H8        -42.0943   -9.3272  -69.4858 H         1 MOL         0.1708
     48 H9        -39.7462  -10.1529  -69.3833 H         1 MOL         0.1577
     49 H10       -38.6947  -10.5047  -67.1616 H         1 MOL         0.0530
     50 H11       -46.1295  -20.4717  -59.7141 H         1 MOL         0.0366
     51 H12       -46.0412  -21.8749  -58.6423 H         1 MOL         0.0366
     52 H13       -47.6932  -18.3500  -57.0779 H         1 MOL         0.0366
     53 H14       -47.1397  -18.3145  -58.7567 H         1 MOL         0.0366
     54 H15       -44.4095  -20.7842  -57.1925 H         1 MOL         0.0399
     55 H16       -43.8567  -20.7492  -58.8716 H         1 MOL         0.0399
     56 H17       -45.5086  -17.2253  -57.3049 H         1 MOL         0.0399
     57 H18       -45.4201  -18.6301  -56.2349 H         1 MOL         0.0399
     58 H19       -39.6766   -7.1187  -61.5552 H         1 MOL         0.0566
     59 H20       -41.3871   -6.8814  -61.9902 H         1 MOL         0.0566
     60 H21       -40.7731   -6.2235  -60.4744 H         1 MOL         0.0566
     61 H22       -49.1451  -20.2030  -57.6423 H         1 MOL         0.0319
     62 H23       -48.4551  -21.7178  -58.2660 H         1 MOL         0.0319
     63 H24       -48.5318  -20.2812  -59.3089 H         1 MOL         0.0319
     64 H25       -42.4429  -19.1593  -58.0924 H         1 MOL         0.0561
     65 H26       -43.1555  -18.5971  -56.5798 H         1 MOL         0.0561
     66 H27       -41.7273  -12.9931  -60.1779 H         1 MOL         0.3224
@<TRIPOS>BOND
     1    1    2 3
     2    1   10 1
     3    2   11 1
     4    3    4 ar
     5    3   12 ar
     6    4   13 ar
     7    5    6 ar
     8    5   14 ar
     9    6   16 ar
    10    7   10 ar
    11    7   12 ar
    12    8   15 ar
    13    8   16 ar
    14    9   11 2
    15    9   30 1
    16   10   13 ar
    17   11   32 1
    18   12   21 1
    19   13   26 1
    20   14   15 ar
    21   14   28 1
    22   15   29 1
    23   16   35 1
    24   17   18 1
    25   17   30 2
    26   17   32 1
    27   18   19 2
    28   19   20 1
    29   20   31 2
    30   21   35 am
    31   21   36 2
    32   22   24 1
    33   22   33 1
    34   23   25 1
    35   23   33 1
    36   24   34 1
    37   25   34 1
    38   27   33 1
    39   28   34 1
    40   29   37 1
    41   29   38 1
    42   29   39 1
    43   31   32 1
    44    3   40 1
    45    4   41 1
    46    5   42 1
    47    6   43 1
    48    7   44 1
    49    8   45 1
    50    9   46 1
    51   18   47 1
    52   19   48 1
    53   20   49 1
    54   22   50 1
    55   22   51 1
    56   23   52 1
    57   23   53 1
    58   24   54 1
    59   24   55 1
    60   25   56 1
    61   25   57 1
    62   26   58 1
    63   26   59 1
    64   26   60 1
    65   27   61 1
    66   27   62 1
    67   27   63 1
    68   28   64 1
    69   28   65 1
    70   35   66 1
