@<TRIPOS>MOLECULE
4-methyl-~{N}-[3-(4-methylimidazol-1-yl)-5-(trifluoromethyl)phenyl]-3-[[4-(3-pyridyl)pyrimidin-2-yl]amino]benzamide
   61    65     0     0     0
SMALL
USER_CHARGES

@<TRIPOS>ATOM
      1 C1        -43.6443  -14.7517  -56.4272 C.ar      1 MOL        -0.1500
      2 C2        -43.1125  -13.7560  -57.2460 C.ar      1 MOL        -0.1500
      3 C3        -39.6230   -4.3969  -58.3238 C.ar      1 MOL        -0.1500
      4 C4        -38.7129   -5.2549  -57.6980 C.ar      1 MOL        -0.1500
      5 C5        -41.9748  -11.5091  -58.9239 C.ar      1 MOL        -0.1500
      6 C6        -41.3663   -6.0202  -57.9608 C.ar      1 MOL        -0.1500
      7 C7        -44.0450    0.4235  -61.0384 C.ar      1 MOL        -0.1500
      8 C8        -43.7701   -1.5436  -59.6645 C.ar      1 MOL        -0.1500
      9 C9        -41.8989   -0.6918  -60.9350 C.ar      1 MOL        -0.1500
     10 C10       -43.8035  -14.4736  -55.0845 C.ar      1 MOL         0.1600
     11 C11       -41.4324  -10.4050  -59.5467 C.ar      1 MOL         0.1600
     12 C12       -42.9553  -12.3538  -55.3523 C.ar      1 MOL         0.1600
     13 C13       -40.8574    1.4547  -62.7264 C.2       1 MOL        -0.3016
     14 C14       -42.8610    2.3083  -62.9845 C.2       1 MOL         0.0365
     15 C15       -42.7424  -12.5056  -56.7279 C.ar      1 MOL         0.0000
     16 C16       -40.9614   -4.7706  -58.4560 C.ar      1 MOL         0.0862
     17 C17       -39.1178   -6.4970  -57.1907 C.ar      1 MOL        -0.1435
     18 C18       -44.5749   -0.5013  -60.1342 C.ar      1 MOL        -0.1435
     19 C19       -42.7037    0.3424  -61.4361 C.ar      1 MOL        -0.0230
     20 C20       -40.4586   -6.8900  -57.3348 C.ar      1 MOL         0.1000
     21 C21       -42.4358   -1.6553  -60.0682 C.ar      1 MOL         0.1170
     22 C22       -42.1694  -11.4196  -57.5548 C.ar      1 MOL         0.3100
     23 C23       -40.8296    2.5446  -63.5697 C.2       1 MOL         0.0462
     24 C24       -41.2912   -9.2502  -57.5692 C.ar      1 MOL         0.7200
     25 C25       -42.0052   -3.9000  -59.0727 C.2       1 MOL         0.5438
     26 C26       -38.1166   -7.3898  -56.5144 C.3       1 MOL         0.1435
     27 C27       -39.6750    3.1663  -64.2442 C.3       1 MOL         0.1810
     28 C28       -45.9936   -0.3867  -59.6602 C.3       1 MOL         1.1635
     29 N1        -43.4728  -13.2950  -54.5236 N.ar      1 MOL        -0.6200
     30 N2        -41.0854   -9.2752  -58.9043 N.ar      1 MOL        -0.6200
     31 N3        -42.0863    3.0587  -63.7334 N.2       1 MOL        -0.5653
     32 N4        -41.8245  -10.2903  -56.8832 N.ar      1 MOL        -0.6200
     33 N5        -42.1699    1.3096  -62.3314 N.pl3     1 MOL         0.3262
     34 N6        -40.9160   -8.1177  -56.8299 N.pl3     1 MOL        -0.6000
     35 N7        -41.5805   -2.6989  -59.6305 N.am      1 MOL        -0.5470
     36 O1        -43.1657   -4.3059  -59.0671 O.2       1 MOL        -0.5700
     37 F1        -46.5364    0.8466  -59.8595 F         1 MOL        -0.3400
     38 F2        -46.8234   -1.2675  -60.2799 F         1 MOL        -0.3400
     39 F3        -46.1211   -0.6248  -58.3242 F         1 MOL        -0.3400
     40 H1        -43.9218  -15.7161  -56.8368 H         1 MOL         0.1500
     41 H2        -42.9914  -13.9917  -58.2995 H         1 MOL         0.1500
     42 H3        -39.2458   -3.4453  -58.6826 H         1 MOL         0.1500
     43 H4        -37.6771   -4.9374  -57.6038 H         1 MOL         0.1500
     44 H5        -42.2267  -12.3816  -59.5122 H         1 MOL         0.1500
     45 H6        -42.4048   -6.3370  -58.0444 H         1 MOL         0.1500
     46 H7        -44.6977    1.2155  -61.3917 H         1 MOL         0.1500
     47 H8        -44.2119   -2.2478  -58.9670 H         1 MOL         0.1500
     48 H9        -40.8569   -0.7883  -61.2270 H         1 MOL         0.1500
     49 H10       -44.2130  -15.2137  -54.4055 H         1 MOL         0.1500
     50 H11       -41.2530  -10.4016  -60.6164 H         1 MOL         0.1500
     51 H12       -42.7133  -11.4270  -54.8381 H         1 MOL         0.1500
     52 H13       -40.0569    0.8208  -62.3729 H         1 MOL         0.1500
     53 H14       -43.9292    2.4484  -62.8988 H         1 MOL         0.1500
     54 H15       -38.4404   -7.6168  -55.4935 H         1 MOL         0.0000
     55 H16       -38.0012   -8.3226  -57.0758 H         1 MOL         0.0000
     56 H17       -37.1325   -6.9144  -56.4503 H         1 MOL         0.0000
     57 H18       -39.6138    2.8342  -65.2840 H         1 MOL         0.0000
     58 H19       -39.7744    4.2568  -64.2331 H         1 MOL         0.0000
     59 H20       -38.7385    2.9110  -63.7389 H         1 MOL         0.0000
     60 H21       -40.9867   -8.1954  -55.8230 H         1 MOL         0.4000
     61 H22       -40.5943   -2.5619  -59.8279 H         1 MOL         0.3700
@<TRIPOS>BOND
     1    1    2 ar
     2    1   10 ar
     3    2   15 ar
     4    3    4 ar
     5    3   16 ar
     6    4   17 ar
     7    5   11 ar
     8    5   22 ar
     9    6   16 ar
    10    6   20 ar
    11    7   18 ar
    12    7   19 ar
    13    8   18 ar
    14    8   21 ar
    15    9   19 ar
    16    9   21 ar
    17   10   29 ar
    18   11   30 ar
    19   12   15 ar
    20   12   29 ar
    21   13   23 2
    22   13   33 1
    23   14   31 2
    24   14   33 1
    25   15   22 1
    26   16   25 1
    27   17   20 ar
    28   17   26 1
    29   18   28 1
    30   19   33 1
    31   20   34 1
    32   21   35 1
    33   22   32 ar
    34   23   27 1
    35   23   31 1
    36   24   30 ar
    37   24   32 ar
    38   24   34 1
    39   25   35 am
    40   25   36 2
    41   28   37 1
    42   28   38 1
    43   28   39 1
    44    1   40 1
    45    2   41 1
    46    3   42 1
    47    4   43 1
    48    5   44 1
    49    6   45 1
    50    7   46 1
    51    8   47 1
    52    9   48 1
    53   10   49 1
    54   11   50 1
    55   12   51 1
    56   13   52 1
    57   14   53 1
    58   26   54 1
    59   26   55 1
    60   26   56 1
    61   27   57 1
    62   27   58 1
    63   27   59 1
    64   34   60 1
    65   35   61 1
