@<TRIPOS>MOLECULE
4-methyl-~{N}-[3-(4-methylimidazol-1-yl)-5-(trifluoromethyl)phenyl]-3-[[4-(3-pyridyl)pyrimidin-2-yl]amino]benzamide
   61    65     0     0     0
SMALL
USER_CHARGES

@<TRIPOS>ATOM
      1 C1        -40.0104  -13.8426  -61.5602 C.ar      1 MOL        -0.2497
      2 C2        -40.8585  -14.7432  -60.9255 C.ar      1 MOL        -0.0689
      3 C3        -42.8707  -13.7985  -55.0637 C.ar      1 MOL        -0.1076
      4 C4        -43.1812  -15.0769  -54.6002 C.ar      1 MOL        -0.1323
      5 C5        -43.2901  -17.3789  -61.7321 C.ar      1 MOL        -0.4094
      6 C6        -43.3975  -14.4880  -57.3185 C.ar      1 MOL        -0.0857
      7 C7        -40.9761   -8.7448  -60.4354 C.ar      1 MOL        -0.1478
      8 C8        -41.1944   -9.9035  -58.3268 C.ar      1 MOL        -0.1645
      9 C9        -41.9957  -10.9338  -60.3599 C.ar      1 MOL        -0.1773
     10 C10       -40.1975  -13.6199  -62.9149 C.ar      1 MOL         0.4043
     11 C11       -44.1322  -18.2073  -61.0188 C.ar      1 MOL         0.4615
     12 C12       -41.9585  -15.0927  -63.0050 C.ar      1 MOL         0.4315
     13 C13       -41.4246   -8.7528  -63.2927 C.2       1 MOL        -0.2484
     14 C14       -42.3531  -10.7502  -63.2221 C.2       1 MOL         0.4179
     15 C15       -41.8538  -15.3846  -61.6546 C.ar      1 MOL        -0.2761
     16 C16       -42.9789  -13.5040  -56.4228 C.ar      1 MOL        -0.1496
     17 C17       -43.5998  -16.0609  -55.4958 C.ar      1 MOL        -0.0273
     18 C18       -40.7818   -8.7876  -59.0549 C.ar      1 MOL        -0.1084
     19 C19       -41.5831   -9.8178  -61.0880 C.ar      1 MOL         0.0653
     20 C20       -43.7080  -15.7664  -56.8550 C.ar      1 MOL         0.1433
     21 C21       -41.8014  -10.9766  -58.9793 C.ar      1 MOL         0.1042
     22 C22       -42.7492  -16.3249  -61.0244 C.ar      1 MOL         0.5378
     23 C23       -41.8153   -9.1702  -64.5432 C.2       1 MOL         0.3180
     24 C24       -43.8402  -16.9670  -59.1364 C.ar      1 MOL         0.8952
     25 C25       -42.6546  -12.1711  -56.9060 C.2       1 MOL         0.6903
     26 C26       -43.9227  -17.4226  -54.9721 C.3       1 MOL        -0.0655
     27 C27       -41.6778   -8.4600  -65.8237 C.3       1 MOL        -0.1179
     28 C28       -40.1323   -7.6407  -58.3573 C.3       1 MOL         0.6863
     29 N1        -41.1531  -14.2239  -63.6563 N.ar      1 MOL        -0.6655
     30 N2        -44.4304  -18.0302  -59.7149 N.ar      1 MOL        -0.7354
     31 N3        -42.3929  -10.4142  -64.4924 N.2       1 MOL        -0.6553
     32 N4        -43.0038  -16.0880  -59.7207 N.ar      1 MOL        -0.7505
     33 N5        -41.7760   -9.7751  -62.4569 N.pl3     1 MOL        -0.1500
     34 N6        -44.1283  -16.7512  -57.7761 N.pl3     1 MOL        -0.7542
     35 N7        -42.2203  -12.1110  -58.2392 N.am      1 MOL        -0.4714
     36 O1        -42.7279  -11.1764  -56.1712 O.2       1 MOL        -0.5843
     37 F1        -39.7803   -6.6194  -59.1934 F         1 MOL        -0.2343
     38 F2        -40.9209   -7.0635  -57.4029 F         1 MOL        -0.2343
     39 F3        -38.9830   -7.9997  -57.7143 F         1 MOL        -0.2343
     40 H1        -39.2280  -13.3301  -61.0125 H         1 MOL         0.1476
     41 H2        -40.7322  -14.9354  -59.8630 H         1 MOL         0.1450
     42 H3        -42.5458  -13.0392  -54.3570 H         1 MOL         0.1353
     43 H4        -43.0946  -15.2957  -53.5391 H         1 MOL         0.1446
     44 H5        -43.0772  -17.5570  -62.7788 H         1 MOL         0.1595
     45 H6        -43.4803  -14.2584  -58.3788 H         1 MOL         0.1655
     46 H7        -40.6527   -7.8721  -60.9992 H         1 MOL         0.1577
     47 H8        -41.0411   -9.9352  -57.2504 H         1 MOL         0.1543
     48 H9        -42.4699  -11.7720  -60.8667 H         1 MOL         0.1882
     49 H10       -39.5618  -12.9268  -63.4566 H         1 MOL         0.0247
     50 H11       -44.6049  -19.0624  -61.4903 H         1 MOL         0.0298
     51 H12       -42.7150  -15.5588  -63.6298 H         1 MOL         0.0338
     52 H13       -40.9457   -7.8482  -62.9420 H         1 MOL         0.1810
     53 H14       -42.7250  -11.6771  -62.8054 H         1 MOL         0.0753
     54 H15       -44.9818  -17.4817  -54.6971 H         1 MOL         0.0563
     55 H16       -43.7118  -18.1950  -55.7216 H         1 MOL         0.0563
     56 H17       -43.3175  -17.6604  -54.0888 H         1 MOL         0.0563
     57 H18       -40.7195   -8.7007  -66.3167 H         1 MOL         0.0493
     58 H19       -42.4871   -8.7135  -66.5326 H         1 MOL         0.0493
     59 H20       -41.7198   -7.3622  -65.7006 H         1 MOL         0.0493
     60 H21       -44.7624  -17.4352  -57.3760 H         1 MOL         0.4662
     61 H22       -42.2040  -12.9963  -58.7395 H         1 MOL         0.3248
@<TRIPOS>BOND
     1    1    2 ar
     2    1   10 ar
     3    2   15 ar
     4    3    4 ar
     5    3   16 ar
     6    4   17 ar
     7    5   11 ar
     8    5   22 ar
     9    6   16 ar
    10    6   20 ar
    11    7   18 ar
    12    7   19 ar
    13    8   18 ar
    14    8   21 ar
    15    9   19 ar
    16    9   21 ar
    17   10   29 ar
    18   11   30 ar
    19   12   15 ar
    20   12   29 ar
    21   13   23 2
    22   13   33 1
    23   14   31 2
    24   14   33 1
    25   15   22 1
    26   16   25 1
    27   17   20 ar
    28   17   26 1
    29   18   28 1
    30   19   33 1
    31   20   34 1
    32   21   35 1
    33   22   32 ar
    34   23   27 1
    35   23   31 1
    36   24   30 ar
    37   24   32 ar
    38   24   34 1
    39   25   35 am
    40   25   36 2
    41   28   37 1
    42   28   38 1
    43   28   39 1
    44    1   40 1
    45    2   41 1
    46    3   42 1
    47    4   43 1
    48    5   44 1
    49    6   45 1
    50    7   46 1
    51    8   47 1
    52    9   48 1
    53   10   49 1
    54   11   50 1
    55   12   51 1
    56   13   52 1
    57   14   53 1
    58   26   54 1
    59   26   55 1
    60   26   56 1
    61   27   57 1
    62   27   58 1
    63   27   59 1
    64   34   60 1
    65   35   61 1
