@<TRIPOS>MOLECULE
~{N}-(3-chloro-4-fluoro-phenyl)-7-methoxy-6-(3-morpholinopropoxy)quinazolin-4-amine
   55    58     0     0     0
SMALL
USER_CHARGES

@<TRIPOS>ATOM
      1 C1        -41.6991   -9.6139  -60.0916 C.ar      1 MOL        -0.1500
      2 C2        -41.1019   -8.4287  -60.5184 C.ar      1 MOL        -0.1500
      3 C3        -42.5871  -14.1128  -57.8368 C.ar      1 MOL        -0.1500
      4 C4        -43.3873  -14.7908  -55.2794 C.ar      1 MOL        -0.1500
      5 C5        -40.5637   -9.4337  -57.9669 C.ar      1 MOL        -0.1500
      6 C6        -42.9593  -11.2691  -54.9230 C.ar      1 MOL         0.4700
      7 C7        -42.7114  -13.1019  -56.8628 C.ar      1 MOL         0.0000
      8 C8        -43.1093  -13.4536  -55.5608 C.ar      1 MOL         0.3100
      9 C9        -41.4423  -10.1312  -58.8100 C.ar      1 MOL         0.1000
     10 C10       -42.8649  -15.4445  -57.5417 C.ar      1 MOL         0.0825
     11 C11       -43.2792  -15.7912  -56.2530 C.ar      1 MOL         0.0825
     12 C12       -40.2399   -7.7525  -59.6644 C.ar      1 MOL         0.1900
     13 C13       -39.9655   -8.2488  -58.3950 C.ar      1 MOL         0.1770
     14 C14       -42.4630  -11.7338  -57.1114 C.ar      1 MOL         0.4100
     15 C15       -44.4712  -17.6438  -61.5486 C.3       1 MOL         0.2700
     16 C16       -45.9494  -16.1967  -60.3184 C.3       1 MOL         0.2700
     17 C17       -45.1682  -18.8435  -60.9233 C.3       1 MOL         0.2800
     18 C18       -46.6414  -17.4297  -59.7463 C.3       1 MOL         0.2800
     19 C19       -44.0233  -17.5020  -54.7644 C.3       1 MOL         0.2800
     20 C20       -42.2493  -15.6429  -60.7874 C.3       1 MOL         0.0000
     21 C21       -43.7514  -15.3844  -60.9684 C.3       1 MOL         0.2700
     22 C22       -41.8058  -16.3507  -59.4908 C.3       1 MOL         0.2800
     23 N1        -43.2332  -12.5395  -54.5897 N.ar      1 MOL        -0.6200
     24 N2        -42.5835  -10.8149  -56.1264 N.ar      1 MOL        -0.6200
     25 N3        -44.5544  -16.5397  -60.5940 N.3       1 MOL        -0.8100
     26 N4        -42.0838  -11.3200  -58.4124 N.pl3     1 MOL        -0.6000
     27 O1        -46.5354  -18.5315  -60.6502 O.3       1 MOL        -0.5600
     28 O2        -43.5448  -17.1216  -56.0485 O.3       1 MOL        -0.3625
     29 O3        -42.7899  -16.4531  -58.4616 O.3       1 MOL        -0.3625
     30 F1        -39.6750   -6.6113  -60.0822 F         1 MOL        -0.1900
     31 Cl1       -38.8921   -7.4087  -57.3444 Cl        1 MOL        -0.1770
     32 H1        -42.3768  -10.1327  -60.7663 H         1 MOL         0.1500
     33 H2        -41.3119   -8.0370  -61.5086 H         1 MOL         0.1500
     34 H3        -42.2778  -13.8420  -58.8388 H         1 MOL         0.1500
     35 H4        -43.6998  -15.0371  -54.2668 H         1 MOL         0.1500
     36 H5        -40.3383   -9.8160  -56.9743 H         1 MOL         0.1500
     37 H6        -43.0546  -10.5300  -54.1381 H         1 MOL         0.1500
     38 H7        -43.4327  -17.9157  -61.7618 H         1 MOL         0.0000
     39 H8        -44.9527  -17.3699  -62.4957 H         1 MOL         0.0000
     40 H9        -46.4522  -15.8647  -61.2349 H         1 MOL         0.0000
     41 H10       -46.0137  -15.3878  -59.5812 H         1 MOL         0.0000
     42 H11       -45.1461  -19.6901  -61.6151 H         1 MOL         0.0000
     43 H12       -44.6681  -19.1556  -59.9970 H         1 MOL         0.0000
     44 H13       -46.2137  -17.7129  -58.7759 H         1 MOL         0.0000
     45 H14       -47.7048  -17.2234  -59.5916 H         1 MOL         0.0000
     46 H15       -44.2002  -18.5818  -54.7824 H         1 MOL         0.0000
     47 H16       -44.9763  -17.0131  -54.5373 H         1 MOL         0.0000
     48 H17       -43.2767  -17.3011  -53.9892 H         1 MOL         0.0000
     49 H18       -41.8613  -16.2150  -61.6401 H         1 MOL         0.0000
     50 H19       -41.7291  -14.6787  -60.8527 H         1 MOL         0.0000
     51 H20       -44.0179  -14.5294  -60.3361 H         1 MOL         0.0000
     52 H21       -43.9562  -15.0711  -61.9999 H         1 MOL         0.0000
     53 H22       -41.5712  -17.3897  -59.7536 H         1 MOL         0.0000
     54 H23       -40.8677  -15.9319  -59.1064 H         1 MOL         0.0000
     55 H24       -42.5624  -11.8068  -59.1636 H         1 MOL         0.4000
@<TRIPOS>BOND
     1    1    2 ar
     2    1    9 ar
     3    2   12 ar
     4    3    7 ar
     5    3   10 ar
     6    4    8 ar
     7    4   11 ar
     8    5    9 ar
     9    5   13 ar
    10    6   23 ar
    11    6   24 ar
    12    7    8 ar
    13    7   14 ar
    14    8   23 ar
    15    9   26 1
    16   10   11 ar
    17   10   29 1
    18   11   28 1
    19   12   13 ar
    20   12   30 1
    21   13   31 1
    22   14   24 ar
    23   14   26 1
    24   15   17 1
    25   15   25 1
    26   16   18 1
    27   16   25 1
    28   17   27 1
    29   18   27 1
    30   19   28 1
    31   20   21 1
    32   20   22 1
    33   21   25 1
    34   22   29 1
    35    1   32 1
    36    2   33 1
    37    3   34 1
    38    4   35 1
    39    5   36 1
    40    6   37 1
    41   15   38 1
    42   15   39 1
    43   16   40 1
    44   16   41 1
    45   17   42 1
    46   17   43 1
    47   18   44 1
    48   18   45 1
    49   19   46 1
    50   19   47 1
    51   19   48 1
    52   20   49 1
    53   20   50 1
    54   21   51 1
    55   21   52 1
    56   22   53 1
    57   22   54 1
    58   26   55 1
