@<TRIPOS>MOLECULE
~{N}-(3-chloro-4-fluoro-phenyl)-7-methoxy-6-(3-morpholinopropoxy)quinazolin-4-amine
   55    58     0     0     0
SMALL
USER_CHARGES

@<TRIPOS>ATOM
      1 C1        -42.7682   -4.7942  -58.7331 C.ar      1 MOL        -0.0786
      2 C2        -42.7382   -6.0873  -58.2110 C.ar      1 MOL        -0.1504
      3 C3        -41.3234   -0.9295  -61.6591 C.ar      1 MOL        -0.1130
      4 C4        -43.4842    0.7284  -62.2057 C.ar      1 MOL        -0.1819
      5 C5        -40.3534   -4.7671  -58.8053 C.ar      1 MOL        -0.1435
      6 C6        -44.7830   -1.2332  -59.4999 C.ar      1 MOL         0.6680
      7 C7        -42.5104   -1.0381  -60.9137 C.ar      1 MOL        -0.2849
      8 C8        -43.6098   -0.2058  -61.1804 C.ar      1 MOL         0.4333
      9 C9        -41.5758   -4.1341  -59.0303 C.ar      1 MOL         0.1157
     10 C10       -41.2256    0.0127  -62.6782 C.ar      1 MOL         0.0877
     11 C11       -42.3072    0.8425  -62.9514 C.ar      1 MOL         0.0950
     12 C12       -41.5158   -6.7203  -57.9860 C.ar      1 MOL         0.1283
     13 C13       -40.3234   -6.0602  -58.2831 C.ar      1 MOL        -0.0096
     14 C14       -42.6735   -1.9587  -59.8824 C.ar      1 MOL         0.6927
     15 C15       -37.5206    0.4124  -67.3476 C.3       1 MOL         0.1373
     16 C16       -37.4767    2.3558  -65.9264 C.3       1 MOL         0.1373
     17 C17       -37.9305    1.3088  -68.5126 C.3       1 MOL         0.1276
     18 C18       -37.8888    3.2062  -67.1246 C.3       1 MOL         0.1276
     19 C19       -41.7545    3.0668  -63.5859 C.3       1 MOL         0.1191
     20 C20       -38.5041   -1.0636  -64.7845 C.3       1 MOL        -0.0919
     21 C21       -37.6033    0.1531  -64.9505 C.3       1 MOL         0.1801
     22 C22       -39.9660   -0.6913  -64.5686 C.3       1 MOL         0.1312
     23 N1        -44.7497   -0.3012  -60.4739 N.ar      1 MOL        -0.7055
     24 N2        -43.8001   -2.0807  -59.1555 N.ar      1 MOL        -0.7528
     25 N3        -37.9956    0.9899  -66.0826 N.3       1 MOL        -0.7374
     26 N4        -41.6069   -2.8326  -59.5555 N.pl3     1 MOL        -0.7173
     27 O1        -37.4055    2.6251  -68.3363 O.3       1 MOL        -0.4163
     28 O2        -42.2335    1.7723  -63.9446 O.3       1 MOL        -0.3500
     29 O3        -40.0654    0.1131  -63.4009 O.3       1 MOL        -0.3428
     30 F1        -41.5029   -7.9631  -57.4832 F         1 MOL        -0.1242
     31 Cl1       -38.8114   -6.8353  -58.0060 Cl        1 MOL        -0.0642
     32 H1        -43.7264   -4.3102  -58.9057 H         1 MOL         0.1696
     33 H2        -43.6667   -6.6006  -57.9794 H         1 MOL         0.1585
     34 H3        -40.4676   -1.5700  -61.4591 H         1 MOL         0.1459
     35 H4        -44.3207    1.3870  -62.4345 H         1 MOL         0.1707
     36 H5        -39.4258   -4.2487  -59.0379 H         1 MOL         0.1514
     37 H6        -45.7042   -1.3050  -58.9346 H         1 MOL         0.0566
     38 H7        -37.9518   -0.5842  -67.4960 H         1 MOL         0.0402
     39 H8        -36.4275    0.3116  -67.3325 H         1 MOL         0.0402
     40 H9        -36.3816    2.3402  -65.8492 H         1 MOL         0.0402
     41 H10       -37.8756    2.8121  -65.0132 H         1 MOL         0.0402
     42 H11       -37.5252    0.9109  -69.4485 H         1 MOL         0.0537
     43 H12       -39.0209    1.3605  -68.6184 H         1 MOL         0.0537
     44 H13       -38.9779    3.3229  -67.1837 H         1 MOL         0.0537
     45 H14       -37.4533    4.2068  -67.0391 H         1 MOL         0.0537
     46 H15       -41.7458    3.7105  -64.4689 H         1 MOL         0.0460
     47 H16       -40.7459    2.9818  -63.1738 H         1 MOL         0.0460
     48 H17       -42.4191    3.4954  -62.8320 H         1 MOL         0.0460
     49 H18       -38.4267   -1.6960  -65.6777 H         1 MOL         0.0611
     50 H19       -38.1597   -1.6840  -63.9474 H         1 MOL         0.0611
     51 H20       -37.6528    0.7825  -64.0565 H         1 MOL         0.0341
     52 H21       -36.5612   -0.1463  -65.1009 H         1 MOL         0.0341
     53 H22       -40.3592   -0.1198  -65.4150 H         1 MOL         0.0501
     54 H23       -40.5794   -1.5868  -64.4267 H         1 MOL         0.0501
     55 H24       -40.6933   -2.4352  -59.7394 H         1 MOL         0.4263
@<TRIPOS>BOND
     1    1    2 ar
     2    1    9 ar
     3    2   12 ar
     4    3    7 ar
     5    3   10 ar
     6    4    8 ar
     7    4   11 ar
     8    5    9 ar
     9    5   13 ar
    10    6   23 ar
    11    6   24 ar
    12    7    8 ar
    13    7   14 ar
    14    8   23 ar
    15    9   26 1
    16   10   11 ar
    17   10   29 1
    18   11   28 1
    19   12   13 ar
    20   12   30 1
    21   13   31 1
    22   14   24 ar
    23   14   26 1
    24   15   17 1
    25   15   25 1
    26   16   18 1
    27   16   25 1
    28   17   27 1
    29   18   27 1
    30   19   28 1
    31   20   21 1
    32   20   22 1
    33   21   25 1
    34   22   29 1
    35    1   32 1
    36    2   33 1
    37    3   34 1
    38    4   35 1
    39    5   36 1
    40    6   37 1
    41   15   38 1
    42   15   39 1
    43   16   40 1
    44   16   41 1
    45   17   42 1
    46   17   43 1
    47   18   44 1
    48   18   45 1
    49   19   46 1
    50   19   47 1
    51   19   48 1
    52   20   49 1
    53   20   50 1
    54   21   51 1
    55   21   52 1
    56   22   53 1
    57   22   54 1
    58   26   55 1
