@<TRIPOS>MOLECULE
4-[(4-methylpiperazin-1-yl)methyl]-~{N}-[4-methyl-3-[[4-(3-pyridyl)pyrimidin-2-yl]amino]phenyl]benzamide
   68    72     0     0     0
SMALL
USER_CHARGES

@<TRIPOS>ATOM
      1 C1        -44.0059  -11.3312  -62.4501 C.ar      1 MOL        -0.2506
      2 C2        -43.9328   -9.9932  -62.0790 C.ar      1 MOL        -0.0711
      3 C3        -43.5757  -12.8971  -58.4224 C.ar      1 MOL        -0.0933
      4 C4        -41.8300  -12.7291  -56.7607 C.ar      1 MOL        -0.0933
      5 C5        -43.9692  -14.1227  -57.8852 C.ar      1 MOL        -0.1271
      6 C6        -42.2235  -13.9547  -56.2234 C.ar      1 MOL        -0.1271
      7 C7        -39.4450   -6.9526  -57.2394 C.ar      1 MOL        -0.0880
      8 C8        -39.9122   -8.2475  -57.0149 C.ar      1 MOL        -0.1675
      9 C9        -43.7674   -6.7046  -63.3585 C.ar      1 MOL        -0.4095
     10 C10       -41.6184   -7.9230  -58.6945 C.ar      1 MOL        -0.1860
     11 C11       -43.4389  -11.7008  -63.6591 C.ar      1 MOL         0.4040
     12 C12       -43.6122   -5.4086  -62.9103 C.ar      1 MOL         0.4616
     13 C13       -42.7682   -9.5491  -64.1045 C.ar      1 MOL         0.4307
     14 C14       -43.3038   -9.0786  -62.9165 C.ar      1 MOL        -0.2733
     15 C15       -42.5061  -12.2003  -57.8602 C.ar      1 MOL        -0.1523
     16 C16       -43.2931  -14.6515  -56.7856 C.ar      1 MOL        -0.0603
     17 C17       -40.0644   -6.1428  -58.1914 C.ar      1 MOL        -0.1448
     18 C18       -40.9989   -8.7327  -57.7424 C.ar      1 MOL         0.0847
     19 C19       -41.1511   -6.6281  -58.9190 C.ar      1 MOL         0.1772
     20 C20       -43.2123   -7.6831  -62.5594 C.ar      1 MOL         0.5363
     21 C21       -42.4702   -6.1250  -61.0801 C.ar      1 MOL         0.8872
     22 C22       -42.0952  -10.9221  -58.4193 C.2       1 MOL         0.6835
     23 C23       -42.1580  -18.6596  -58.3472 C.3       1 MOL         0.1708
     24 C24       -44.4304  -19.2938  -57.8473 C.3       1 MOL         0.1708
     25 C25       -42.2491  -17.5251  -57.3208 C.3       1 MOL         0.1753
     26 C26       -44.5206  -18.1600  -56.8201 C.3       1 MOL         0.1753
     27 C27       -39.5430   -4.7601  -58.4116 C.3       1 MOL        -0.0528
     28 C28       -42.9626  -20.8478  -58.9636 C.3       1 MOL         0.1609
     29 C29       -43.7178  -15.9703  -56.2070 C.3       1 MOL         0.2165
     30 N1        -42.8197  -10.8412  -64.4989 N.ar      1 MOL        -0.6654
     31 N2        -42.9670   -5.0816  -61.7714 N.ar      1 MOL        -0.7391
     32 N3        -42.5542   -7.4281  -61.4095 N.ar      1 MOL        -0.7480
     33 N4        -43.0478  -19.7685  -57.9817 N.3       1 MOL        -0.7397
     34 N5        -43.6320  -17.0508  -57.1874 N.3       1 MOL        -0.7459
     35 N6        -41.7906   -5.8214  -59.8860 N.pl3     1 MOL        -0.7209
     36 N7        -41.4736  -10.0488  -57.5133 N.am      1 MOL        -0.4687
     37 O1        -42.3167  -10.6273  -59.6020 O.2       1 MOL        -0.5862
     38 H1        -44.4903  -12.0623  -61.8133 H         1 MOL         0.1463
     39 H2        -44.3702   -9.6777  -61.1350 H         1 MOL         0.1439
     40 H3        -44.1091  -12.4938  -59.2792 H         1 MOL         0.1467
     41 H4        -40.9951  -12.1951  -56.3144 H         1 MOL         0.1467
     42 H5        -44.8038  -14.6587  -58.3293 H         1 MOL         0.1452
     43 H6        -41.6914  -14.3591  -55.3662 H         1 MOL         0.1452
     44 H7        -38.5974   -6.5837  -56.6678 H         1 MOL         0.1366
     45 H8        -39.4219   -8.8702  -56.2708 H         1 MOL         0.1760
     46 H9        -44.2930   -6.9237  -64.2796 H         1 MOL         0.1589
     47 H10       -42.4663   -8.3017  -59.2616 H         1 MOL         0.1531
     48 H11       -43.4697  -12.7326  -63.9944 H         1 MOL         0.0247
     49 H12       -44.0146   -4.5721  -63.4716 H         1 MOL         0.0273
     50 H13       -42.2633   -8.8865  -64.8017 H         1 MOL         0.0334
     51 H14       -42.4028  -18.2738  -59.3462 H         1 MOL         0.0372
     52 H15       -41.1201  -19.0126  -58.3796 H         1 MOL         0.0372
     53 H16       -45.0733  -20.1160  -57.5102 H         1 MOL         0.0372
     54 H17       -44.8219  -18.9483  -58.8138 H         1 MOL         0.0372
     55 H18       -41.8579  -17.8698  -56.3538 H         1 MOL         0.0379
     56 H19       -41.6062  -16.7029  -57.6580 H         1 MOL         0.0379
     57 H20       -45.5587  -17.8074  -56.7865 H         1 MOL         0.0379
     58 H21       -44.2742  -18.5458  -55.8215 H         1 MOL         0.0379
     59 H22       -38.7695   -4.7656  -59.1880 H         1 MOL         0.0437
     60 H23       -40.3452   -4.0793  -58.7215 H         1 MOL         0.0437
     61 H24       -39.1121   -4.3483  -57.4908 H         1 MOL         0.0437
     62 H25       -43.6290  -21.6667  -58.6806 H         1 MOL         0.0323
     63 H26       -41.9394  -21.2294  -59.0180 H         1 MOL         0.0323
     64 H27       -43.2536  -20.4830  -59.9524 H         1 MOL         0.0323
     65 H28       -43.0861  -16.2386  -55.3532 H         1 MOL         0.0434
     66 H29       -44.7508  -15.9267  -55.8463 H         1 MOL         0.0434
     67 H30       -41.7499   -4.8292  -59.6762 H         1 MOL         0.4542
     68 H31       -41.3473  -10.4066  -56.5698 H         1 MOL         0.3224
@<TRIPOS>BOND
     1    1    2 ar
     2    1   11 ar
     3    2   14 ar
     4    3    5 ar
     5    3   15 ar
     6    4    6 ar
     7    4   15 ar
     8    5   16 ar
     9    6   16 ar
    10    7    8 ar
    11    7   17 ar
    12    8   18 ar
    13    9   12 ar
    14    9   20 ar
    15   10   18 ar
    16   10   19 ar
    17   11   30 ar
    18   12   31 ar
    19   13   14 ar
    20   13   30 ar
    21   14   20 1
    22   15   22 1
    23   16   29 1
    24   17   19 ar
    25   17   27 1
    26   18   36 1
    27   19   35 1
    28   20   32 ar
    29   21   31 ar
    30   21   32 ar
    31   21   35 1
    32   22   36 am
    33   22   37 2
    34   23   25 1
    35   23   33 1
    36   24   26 1
    37   24   33 1
    38   25   34 1
    39   26   34 1
    40   28   33 1
    41   29   34 1
    42    1   38 1
    43    2   39 1
    44    3   40 1
    45    4   41 1
    46    5   42 1
    47    6   43 1
    48    7   44 1
    49    8   45 1
    50    9   46 1
    51   10   47 1
    52   11   48 1
    53   12   49 1
    54   13   50 1
    55   23   51 1
    56   23   52 1
    57   24   53 1
    58   24   54 1
    59   25   55 1
    60   25   56 1
    61   26   57 1
    62   26   58 1
    63   27   59 1
    64   27   60 1
    65   27   61 1
    66   28   62 1
    67   28   63 1
    68   28   64 1
    69   29   65 1
    70   29   66 1
    71   35   67 1
    72   36   68 1
