@<TRIPOS>MOLECULE
4-methyl-~{N}-[3-(4-methylimidazol-1-yl)-5-(trifluoromethyl)phenyl]-3-[[4-(3-pyridyl)pyrimidin-2-yl]amino]benzamide
   61    65     0     0     0
SMALL
USER_CHARGES

@<TRIPOS>ATOM
      1 C1        -41.1810  -19.9286  -44.6307 C.ar      1 MOL        -0.2497
      2 C2        -40.8539  -18.9436  -45.5560 C.ar      1 MOL        -0.0689
      3 C3        -41.0494   -9.7853  -48.9400 C.ar      1 MOL        -0.1076
      4 C4        -41.4643   -9.7595  -47.6086 C.ar      1 MOL        -0.1323
      5 C5        -39.0647  -16.8315  -46.9711 C.ar      1 MOL        -0.4094
      6 C6        -40.7541  -12.1792  -48.8017 C.ar      1 MOL        -0.0857
      7 C7        -38.2421   -8.9545  -55.2449 C.ar      1 MOL        -0.1478
      8 C8        -39.7737  -10.1420  -53.8024 C.ar      1 MOL        -0.1645
      9 C9        -38.1367   -8.6410  -52.8516 C.ar      1 MOL        -0.1773
     10 C10       -41.0618  -19.6198  -43.2853 C.ar      1 MOL         0.4043
     11 C11       -38.8274  -15.7615  -47.8096 C.ar      1 MOL         0.4615
     12 C12       -40.3387  -17.4885  -43.7468 C.ar      1 MOL         0.4315
     13 C13       -35.9523   -6.7982  -53.2976 C.2       1 MOL        -0.2484
     14 C14       -36.0492   -7.0866  -55.4803 C.2       1 MOL         0.4179
     15 C15       -40.4238  -17.6975  -45.1138 C.ar      1 MOL        -0.2761
     16 C16       -40.6944  -10.9952  -49.5366 C.ar      1 MOL        -0.1496
     17 C17       -41.5241  -10.9436  -46.8736 C.ar      1 MOL        -0.0273
     18 C18       -39.2983   -9.8506  -55.0810 C.ar      1 MOL        -0.1084
     19 C19       -37.6612   -8.3497  -54.1302 C.ar      1 MOL         0.0653
     20 C20       -41.1690  -12.1535  -47.4702 C.ar      1 MOL         0.1433
     21 C21       -39.1929   -9.5371  -52.6877 C.ar      1 MOL         0.1042
     22 C22       -40.0766  -16.6549  -46.0495 C.ar      1 MOL         0.5378
     23 C23       -35.0051   -6.0424  -53.9473 C.2       1 MOL         0.3180
     24 C24       -40.4798  -14.5545  -46.8196 C.ar      1 MOL         0.8952
     25 C25       -40.2613  -11.0217  -50.9247 C.2       1 MOL         0.6903
     26 C26       -41.9688  -10.8861  -45.4483 C.3       1 MOL        -0.0655
     27 C27       -34.0094   -5.1318  -53.3620 C.3       1 MOL        -0.1179
     28 C28       -39.9198  -10.4967  -56.2727 C.3       1 MOL         0.6863
     29 N1        -40.6476  -18.4208  -42.8178 N.ar      1 MOL        -0.6655
     30 N2        -39.5184  -14.6037  -47.7613 N.ar      1 MOL        -0.7354
     31 N3        -35.0709   -6.2261  -55.3058 N.2       1 MOL        -0.6553
     32 N4        -40.8070  -15.5253  -45.9455 N.ar      1 MOL        -0.7505
     33 N5        -36.6136   -7.4613  -54.2927 N.pl3     1 MOL        -0.1500
     34 N6        -41.2215  -13.3614  -46.7403 N.pl3     1 MOL        -0.7542
     35 N7        -39.6766   -9.8330  -51.3883 N.am      1 MOL        -0.4714
     36 O1        -40.4351  -12.0166  -51.6422 O.2       1 MOL        -0.5843
     37 F1        -39.3549  -10.1186  -57.4576 F         1 MOL        -0.2343
     38 F2        -39.8398  -11.8603  -56.2595 F         1 MOL        -0.2343
     39 F3        -41.2487  -10.2093  -56.3928 F         1 MOL        -0.2343
     40 H1        -41.5194  -20.9070  -44.9517 H         1 MOL         0.1476
     41 H2        -40.9389  -19.1612  -46.6178 H         1 MOL         0.1450
     42 H3        -41.0069   -8.8569  -49.5035 H         1 MOL         0.1353
     43 H4        -41.7399   -8.8118  -47.1535 H         1 MOL         0.1446
     44 H5        -38.4861  -17.7440  -47.0434 H         1 MOL         0.1595
     45 H6        -40.4755  -13.1225  -49.2668 H         1 MOL         0.1655
     46 H7        -37.8744   -8.7304  -56.2441 H         1 MOL         0.1577
     47 H8        -40.5981  -10.8404  -53.6770 H         1 MOL         0.1543
     48 H9        -37.6848   -8.1707  -51.9804 H         1 MOL         0.1882
     49 H10       -41.3044  -20.3538  -42.5236 H         1 MOL         0.0247
     50 H11       -38.0516  -15.8070  -48.5664 H         1 MOL         0.0298
     51 H12       -40.0108  -16.5374  -43.3369 H         1 MOL         0.0338
     52 H13       -36.2016   -6.9137  -52.2511 H         1 MOL         0.1810
     53 H14       -36.3881   -7.4676  -56.4348 H         1 MOL         0.0753
     54 H15       -43.0561  -11.0077  -45.3852 H         1 MOL         0.0563
     55 H16       -41.4931  -11.6750  -44.8533 H         1 MOL         0.0563
     56 H17       -41.6960   -9.9291  -44.9871 H         1 MOL         0.0563
     57 H18       -33.0677   -5.6600  -53.1307 H         1 MOL         0.0493
     58 H19       -33.7607   -4.2928  -54.0373 H         1 MOL         0.0493
     59 H20       -34.3667   -4.6669  -52.4248 H         1 MOL         0.0493
     60 H21       -41.9351  -13.3675  -46.0186 H         1 MOL         0.4662
     61 H22       -39.5883   -9.0869  -50.7029 H         1 MOL         0.3248
@<TRIPOS>BOND
     1    1    2 ar
     2    1   10 ar
     3    2   15 ar
     4    3    4 ar
     5    3   16 ar
     6    4   17 ar
     7    5   11 ar
     8    5   22 ar
     9    6   16 ar
    10    6   20 ar
    11    7   18 ar
    12    7   19 ar
    13    8   18 ar
    14    8   21 ar
    15    9   19 ar
    16    9   21 ar
    17   10   29 ar
    18   11   30 ar
    19   12   15 ar
    20   12   29 ar
    21   13   23 2
    22   13   33 1
    23   14   31 2
    24   14   33 1
    25   15   22 1
    26   16   25 1
    27   17   20 ar
    28   17   26 1
    29   18   28 1
    30   19   33 1
    31   20   34 1
    32   21   35 1
    33   22   32 ar
    34   23   27 1
    35   23   31 1
    36   24   30 ar
    37   24   32 ar
    38   24   34 1
    39   25   35 am
    40   25   36 2
    41   28   37 1
    42   28   38 1
    43   28   39 1
    44    1   40 1
    45    2   41 1
    46    3   42 1
    47    4   43 1
    48    5   44 1
    49    6   45 1
    50    7   46 1
    51    8   47 1
    52    9   48 1
    53   10   49 1
    54   11   50 1
    55   12   51 1
    56   13   52 1
    57   14   53 1
    58   26   54 1
    59   26   55 1
    60   26   56 1
    61   27   57 1
    62   27   58 1
    63   27   59 1
    64   34   60 1
    65   35   61 1
