@<TRIPOS>MOLECULE
4-[(4-methylpiperazin-1-yl)methyl]-~{N}-[4-methyl-3-[[4-(3-pyridyl)pyrimidin-2-yl]amino]phenyl]benzamide
   68    72     0     0     0
SMALL
USER_CHARGES

@<TRIPOS>ATOM
      1 C1        -35.7752   -9.4881  -59.7145 C.ar      1 MOL        -0.2506
      2 C2        -36.8472   -9.7835  -58.8797 C.ar      1 MOL        -0.0711
      3 C3        -40.8759  -13.9829  -47.4334 C.ar      1 MOL        -0.0933
      4 C4        -38.9733  -13.9079  -48.9204 C.ar      1 MOL        -0.0933
      5 C5        -40.5922  -15.3161  -47.1375 C.ar      1 MOL        -0.1271
      6 C6        -38.6895  -15.2412  -48.6246 C.ar      1 MOL        -0.1271
      7 C7        -40.7349   -7.8553  -50.3089 C.ar      1 MOL        -0.0880
      8 C8        -40.6312   -9.1279  -49.7472 C.ar      1 MOL        -0.1675
      9 C9        -38.7165  -10.8480  -56.8780 C.ar      1 MOL        -0.4095
     10 C10       -39.5318   -9.9209  -51.7471 C.ar      1 MOL        -0.1860
     11 C11       -34.6479   -8.9179  -59.1453 C.ar      1 MOL         0.4040
     12 C12       -39.7245  -11.0266  -55.9526 C.ar      1 MOL         0.4616
     13 C13       -35.5889   -8.9331  -57.0495 C.ar      1 MOL         0.4307
     14 C14       -36.7604   -9.5037  -57.5205 C.ar      1 MOL        -0.2733
     15 C15       -40.0665  -13.2788  -48.3249 C.ar      1 MOL        -0.1523
     16 C16       -39.4989  -15.9453  -47.7331 C.ar      1 MOL        -0.0603
     17 C17       -40.2372   -7.6156  -51.5897 C.ar      1 MOL        -0.1448
     18 C18       -40.0297  -10.1607  -50.4663 C.ar      1 MOL         0.0847
     19 C19       -39.6356   -8.6484  -52.3088 C.ar      1 MOL         0.1772
     20 C20       -37.8562   -9.7983  -56.6285 C.ar      1 MOL         0.5363
     21 C21       -38.9861   -9.2570  -54.7318 C.ar      1 MOL         0.8872
     22 C22       -40.3612  -11.8884  -48.6337 C.2       1 MOL         0.6835
     23 C23       -41.4664  -19.4905  -49.5638 C.3       1 MOL         0.1708
     24 C24       -41.4015  -20.4400  -47.3479 C.3       1 MOL         0.1708
     25 C25       -40.3048  -18.5599  -49.1988 C.3       1 MOL         0.1753
     26 C26       -40.2390  -19.5101  -46.9838 C.3       1 MOL         0.1753
     27 C27       -40.3614   -6.2431  -52.1667 C.3       1 MOL        -0.0528
     28 C28       -42.5155  -21.6187  -49.1327 C.3       1 MOL         0.1609
     29 C29       -39.1932  -17.3800  -47.4134 C.3       1 MOL         0.2165
     30 N1        -34.5267   -8.6318  -57.8296 N.ar      1 MOL        -0.6654
     31 N2        -39.8895  -10.2469  -54.8639 N.ar      1 MOL        -0.7391
     32 N3        -37.9621   -8.9796  -55.5614 N.ar      1 MOL        -0.7480
     33 N4        -41.4047  -20.7341  -48.7862 N.3       1 MOL        -0.7397
     34 N5        -40.3026  -18.2660  -47.7605 N.3       1 MOL        -0.7459
     35 N6        -39.1271   -8.4233  -53.6071 N.pl3     1 MOL        -0.7209
     36 N7        -39.9250  -11.4539  -49.8950 N.am      1 MOL        -0.4687
     37 O1        -40.9253  -11.1457  -47.8184 O.2       1 MOL        -0.5862
     38 H1        -35.8195   -9.6979  -60.7770 H         1 MOL         0.1463
     39 H2        -37.7434  -10.2312  -59.3021 H         1 MOL         0.1439
     40 H3        -41.7301  -13.5019  -46.9639 H         1 MOL         0.1467
     41 H4        -38.3357  -13.3692  -49.6166 H         1 MOL         0.1467
     42 H5        -41.2279  -15.8570  -46.4416 H         1 MOL         0.1452
     43 H6        -37.8353  -15.7234  -49.0928 H         1 MOL         0.1452
     44 H7        -41.2050   -7.0570  -49.7406 H         1 MOL         0.1366
     45 H8        -41.0222   -9.3036  -48.7482 H         1 MOL         0.1760
     46 H9        -38.6198  -11.4974  -57.7392 H         1 MOL         0.1589
     47 H10       -39.0630  -10.7269  -52.3080 H         1 MOL         0.1531
     48 H11       -33.7847   -8.6681  -59.7538 H         1 MOL         0.0247
     49 H12       -40.4494  -11.8259  -56.0644 H         1 MOL         0.0273
     50 H13       -35.4574   -8.6913  -55.9986 H         1 MOL         0.0334
     51 H14       -42.4206  -18.9719  -49.3984 H         1 MOL         0.0372
     52 H15       -41.4014  -19.7194  -50.6345 H         1 MOL         0.0372
     53 H16       -41.2887  -21.3713  -46.7797 H         1 MOL         0.0372
     54 H17       -42.3512  -19.9822  -47.0393 H         1 MOL         0.0372
     55 H18       -39.3546  -19.0171  -49.5070 H         1 MOL         0.0379
     56 H19       -40.4177  -17.6286  -49.7671 H         1 MOL         0.0379
     57 H20       -40.3030  -19.2819  -45.9129 H         1 MOL         0.0379
     58 H21       -39.2850  -20.0285  -47.1509 H         1 MOL         0.0379
     59 H22       -39.4804   -5.6432  -51.9115 H         1 MOL         0.0437
     60 H23       -40.4555   -6.2799  -53.2589 H         1 MOL         0.0437
     61 H24       -41.2546   -5.7330  -51.7859 H         1 MOL         0.0437
     62 H25       -42.4584  -22.5403  -48.5477 H         1 MOL         0.0323
     63 H26       -42.4784  -21.8736  -50.1953 H         1 MOL         0.0323
     64 H27       -43.4694  -21.1274  -48.9233 H         1 MOL         0.0323
     65 H28       -38.3074  -17.7176  -47.9624 H         1 MOL         0.0434
     66 H29       -38.9832  -17.5088  -46.3464 H         1 MOL         0.0434
     67 H30       -38.7996   -7.4741  -53.7545 H         1 MOL         0.4542
     68 H31       -39.4754  -12.1585  -50.4745 H         1 MOL         0.3224
@<TRIPOS>BOND
     1    1    2 ar
     2    1   11 ar
     3    2   14 ar
     4    3    5 ar
     5    3   15 ar
     6    4    6 ar
     7    4   15 ar
     8    5   16 ar
     9    6   16 ar
    10    7    8 ar
    11    7   17 ar
    12    8   18 ar
    13    9   12 ar
    14    9   20 ar
    15   10   18 ar
    16   10   19 ar
    17   11   30 ar
    18   12   31 ar
    19   13   14 ar
    20   13   30 ar
    21   14   20 1
    22   15   22 1
    23   16   29 1
    24   17   19 ar
    25   17   27 1
    26   18   36 1
    27   19   35 1
    28   20   32 ar
    29   21   31 ar
    30   21   32 ar
    31   21   35 1
    32   22   36 am
    33   22   37 2
    34   23   25 1
    35   23   33 1
    36   24   26 1
    37   24   33 1
    38   25   34 1
    39   26   34 1
    40   28   33 1
    41   29   34 1
    42    1   38 1
    43    2   39 1
    44    3   40 1
    45    4   41 1
    46    5   42 1
    47    6   43 1
    48    7   44 1
    49    8   45 1
    50    9   46 1
    51   10   47 1
    52   11   48 1
    53   12   49 1
    54   13   50 1
    55   23   51 1
    56   23   52 1
    57   24   53 1
    58   24   54 1
    59   25   55 1
    60   25   56 1
    61   26   57 1
    62   26   58 1
    63   27   59 1
    64   27   60 1
    65   27   61 1
    66   28   62 1
    67   28   63 1
    68   28   64 1
    69   29   65 1
    70   29   66 1
    71   35   67 1
    72   36   68 1
