@<TRIPOS>MOLECULE
~{N}-(3-ethynylphenyl)-6,7-bis(2-methoxyethoxy)quinazolin-4-amine
   52    54     0     0     0
SMALL
USER_CHARGES

@<TRIPOS>ATOM
      1 C1        -37.6400   -6.7933  -56.8319 C.1       1 MOL        -0.1333
      2 C2        -38.6908   -6.4332  -57.2881 C.1       1 MOL        -0.1268
      3 C3        -42.1955   -6.5063  -58.5403 C.ar      1 MOL        -0.1106
      4 C4        -40.9746   -6.9242  -58.0108 C.ar      1 MOL        -0.1283
      5 C5        -42.3832   -5.1690  -58.8896 C.ar      1 MOL        -0.1307
      6 C6        -40.1289   -4.6673  -58.1799 C.ar      1 MOL        -0.1551
      7 C7        -41.7414   -0.7680  -60.9386 C.ar      1 MOL        -0.1186
      8 C8        -44.0420    0.7880  -60.8877 C.ar      1 MOL        -0.2564
      9 C9        -44.7220   -1.5407  -58.2475 C.ar      1 MOL         0.6704
     10 C10       -39.9413   -6.0047  -57.8306 C.ar      1 MOL         0.0467
     11 C11       -42.7629   -1.0379  -60.0114 C.ar      1 MOL        -0.3025
     12 C12       -43.9308   -0.2587  -59.9756 C.ar      1 MOL         0.4581
     13 C13       -41.3499   -4.2495  -58.7094 C.ar      1 MOL         0.1660
     14 C14       -41.8790    0.2840  -61.8387 C.ar      1 MOL         0.0835
     15 C15       -43.0306    1.0628  -61.8129 C.ar      1 MOL         0.1515
     16 C16       -42.6882   -2.0743  -59.0851 C.ar      1 MOL         0.7169
     17 C17       -38.0849   -0.6586  -66.3734 C.3       1 MOL         0.1162
     18 C18       -46.8084    4.0914  -61.6893 C.3       1 MOL         0.1202
     19 C19       -40.5515   -0.5031  -63.6482 C.3       1 MOL         0.1265
     20 C20       -43.9697    3.2049  -62.2429 C.3       1 MOL         0.1161
     21 C21       -39.4492   -0.0185  -64.5701 C.3       1 MOL         0.1180
     22 C22       -45.1399    3.3922  -63.1893 C.3       1 MOL         0.1233
     23 N1        -44.9141   -0.5081  -59.0932 N.ar      1 MOL        -0.7145
     24 N2        -43.6533   -2.3515  -58.1882 N.ar      1 MOL        -0.7616
     25 N3        -41.5393   -2.9037  -59.0611 N.pl3     1 MOL        -0.7646
     26 O1        -40.8859    0.5399  -62.7339 O.3       1 MOL        -0.3242
     27 O2        -43.1864    2.0981  -62.6848 O.3       1 MOL        -0.3103
     28 O3        -39.1017   -1.0654  -65.4683 O.3       1 MOL        -0.4209
     29 O4        -45.9325    4.4833  -62.7370 O.3       1 MOL        -0.4269
     30 H1        -36.7081   -7.1121  -56.4270 H         1 MOL         0.1679
     31 H2        -43.0002   -7.2222  -58.6806 H         1 MOL         0.1379
     32 H3        -40.8437   -7.9700  -57.7433 H         1 MOL         0.1416
     33 H4        -43.3387   -4.8543  -59.3014 H         1 MOL         0.1512
     34 H5        -39.3254   -3.9464  -58.0409 H         1 MOL         0.1397
     35 H6        -40.8340   -1.3664  -60.9730 H         1 MOL         0.1429
     36 H7        -44.9366    1.4089  -60.8828 H         1 MOL         0.1673
     37 H8        -45.5178   -1.7364  -57.5392 H         1 MOL         0.0545
     38 H9        -37.8435   -1.4848  -67.0466 H         1 MOL         0.0357
     39 H10       -37.1956   -0.3593  -65.8131 H         1 MOL         0.0357
     40 H11       -38.4479    0.1903  -66.9576 H         1 MOL         0.0357
     41 H12       -47.4003    4.9517  -61.3672 H         1 MOL         0.0354
     42 H13       -46.2245    3.7030  -60.8511 H         1 MOL         0.0354
     43 H14       -47.4768    3.3099  -62.0584 H         1 MOL         0.0354
     44 H15       -40.2274   -1.3731  -63.0690 H         1 MOL         0.0523
     45 H16       -41.4476   -0.7555  -64.2226 H         1 MOL         0.0523
     46 H17       -44.3146    2.9940  -61.2261 H         1 MOL         0.0609
     47 H18       -43.3339    4.0950  -62.2395 H         1 MOL         0.0609
     48 H19       -38.5536    0.2562  -64.0040 H         1 MOL         0.0444
     49 H20       -39.7908    0.8383  -65.1581 H         1 MOL         0.0444
     50 H21       -45.7725    2.4994  -63.2162 H         1 MOL         0.0457
     51 H22       -44.7838    3.6221  -64.1977 H         1 MOL         0.0457
     52 H23       -40.6956   -2.4272  -59.3566 H         1 MOL         0.4489
@<TRIPOS>BOND
     1    1    2 3
     2    2   10 1
     3    3    4 ar
     4    3    5 ar
     5    4   10 ar
     6    5   13 ar
     7    6   10 ar
     8    6   13 ar
     9    7   11 ar
    10    7   14 ar
    11    8   12 ar
    12    8   15 ar
    13    9   23 ar
    14    9   24 ar
    15   11   12 ar
    16   11   16 ar
    17   12   23 ar
    18   13   25 1
    19   14   15 ar
    20   14   26 1
    21   15   27 1
    22   16   24 ar
    23   16   25 1
    24   17   28 1
    25   18   29 1
    26   19   21 1
    27   19   26 1
    28   20   22 1
    29   20   27 1
    30   21   28 1
    31   22   29 1
    32    1   30 1
    33    3   31 1
    34    4   32 1
    35    5   33 1
    36    6   34 1
    37    7   35 1
    38    8   36 1
    39    9   37 1
    40   17   38 1
    41   17   39 1
    42   17   40 1
    43   18   41 1
    44   18   42 1
    45   18   43 1
    46   19   44 1
    47   19   45 1
    48   20   46 1
    49   20   47 1
    50   21   48 1
    51   21   49 1
    52   22   50 1
    53   22   51 1
    54   25   52 1
