@<TRIPOS>MOLECULE
~{N}-(3-ethynylphenyl)-6,7-bis(2-methoxyethoxy)quinazolin-4-amine
   52    54     0     0     0
SMALL
USER_CHARGES

@<TRIPOS>ATOM
      1 C1        -38.3844   -5.8170  -56.9515 C.1       1 MOL        -0.1770
      2 C2        -39.0615   -6.4783  -57.6896 C.1       1 MOL        -0.0730
      3 C3        -40.8916   -7.6508  -60.7076 C.ar      1 MOL        -0.1500
      4 C4        -40.1033   -6.8680  -59.8704 C.ar      1 MOL        -0.1500
      5 C5        -41.4513   -8.8329  -60.2271 C.ar      1 MOL        -0.1500
      6 C6        -40.4365   -8.4613  -58.0733 C.ar      1 MOL        -0.1500
      7 C7        -42.5370  -13.2086  -58.0954 C.ar      1 MOL        -0.1500
      8 C8        -43.2585  -14.0584  -55.5902 C.ar      1 MOL        -0.1500
      9 C9        -42.5571  -10.6121  -54.9479 C.ar      1 MOL         0.4700
     10 C10       -39.8735   -7.2744  -58.5549 C.ar      1 MOL         0.0730
     11 C11       -42.5279  -12.2840  -57.0333 C.ar      1 MOL         0.0000
     12 C12       -42.8949  -12.7210  -55.7548 C.ar      1 MOL         0.3100
     13 C13       -41.2378   -9.2530  -58.9019 C.ar      1 MOL         0.1000
     14 C14       -42.9312  -14.5410  -57.9349 C.ar      1 MOL         0.0825
     15 C15       -43.2817  -14.9759  -56.6570 C.ar      1 MOL         0.0825
     16 C16       -42.1829  -10.9209  -57.1851 C.ar      1 MOL         0.4100
     17 C17       -44.2244  -15.3752  -63.6544 C.3       1 MOL         0.2800
     18 C18       -45.7964  -17.5468  -52.4448 C.3       1 MOL         0.2800
     19 C19       -43.0072  -14.7978  -60.2685 C.3       1 MOL         0.2800
     20 C20       -43.5031  -16.8863  -55.2454 C.3       1 MOL         0.2800
     21 C21       -43.5349  -15.6701  -61.3934 C.3       1 MOL         0.2800
     22 C22       -44.8256  -16.9062  -54.4922 C.3       1 MOL         0.2800
     23 N1        -42.9097  -11.8858  -54.7062 N.ar      1 MOL        -0.6200
     24 N2        -42.1944  -10.0823  -56.1263 N.ar      1 MOL        -0.6200
     25 N3        -41.8426  -10.4494  -58.4791 N.pl3     1 MOL        -0.6000
     26 O1        -42.9947  -15.4377  -58.9878 O.3       1 MOL        -0.3625
     27 O2        -43.6558  -16.2889  -56.5329 O.3       1 MOL        -0.3625
     28 O3        -43.8792  -14.7517  -62.4341 O.3       1 MOL        -0.5600
     29 O4        -44.6012  -17.4845  -53.2103 O.3       1 MOL        -0.5600
     30 H1        -37.7862   -5.2336  -56.2926 H         1 MOL         0.1770
     31 H2        -41.0744   -7.3435  -61.7328 H         1 MOL         0.1500
     32 H3        -39.6740   -5.9470  -60.2547 H         1 MOL         0.1500
     33 H4        -42.0670   -9.4299  -60.8975 H         1 MOL         0.1500
     34 H5        -40.2385   -8.7617  -57.0475 H         1 MOL         0.1500
     35 H6        -42.2355  -12.8602  -59.0770 H         1 MOL         0.1500
     36 H7        -43.5455  -14.3705  -54.5884 H         1 MOL         0.1500
     37 H8        -42.5728   -9.9371  -54.1015 H         1 MOL         0.1500
     38 H9        -44.6013  -14.6013  -64.3303 H         1 MOL         0.0000
     39 H10       -45.0067  -16.1238  -63.5062 H         1 MOL         0.0000
     40 H11       -43.3364  -15.8250  -64.1047 H         1 MOL         0.0000
     41 H12       -45.5603  -17.9933  -51.4751 H         1 MOL         0.0000
     42 H13       -46.5395  -18.1732  -52.9471 H         1 MOL         0.0000
     43 H14       -46.1987  -16.5428  -52.2789 H         1 MOL         0.0000
     44 H15       -43.6519  -13.9087  -60.2429 H         1 MOL         0.0000
     45 H16       -41.9853  -14.4887  -60.5260 H         1 MOL         0.0000
     46 H17       -43.1813  -17.9215  -55.4110 H         1 MOL         0.0000
     47 H18       -42.6929  -16.4383  -54.6551 H         1 MOL         0.0000
     48 H19       -44.4183  -16.2361  -61.0811 H         1 MOL         0.0000
     49 H20       -42.7631  -16.3694  -61.7337 H         1 MOL         0.0000
     50 H21       -45.5621  -17.4955  -55.0507 H         1 MOL         0.0000
     51 H22       -45.2317  -15.8950  -54.3797 H         1 MOL         0.0000
     52 H23       -42.3365  -10.9225  -59.2290 H         1 MOL         0.4000
@<TRIPOS>BOND
     1    1    2 3
     2    2   10 1
     3    3    4 ar
     4    3    5 ar
     5    4   10 ar
     6    5   13 ar
     7    6   10 ar
     8    6   13 ar
     9    7   11 ar
    10    7   14 ar
    11    8   12 ar
    12    8   15 ar
    13    9   23 ar
    14    9   24 ar
    15   11   12 ar
    16   11   16 ar
    17   12   23 ar
    18   13   25 1
    19   14   15 ar
    20   14   26 1
    21   15   27 1
    22   16   24 ar
    23   16   25 1
    24   17   28 1
    25   18   29 1
    26   19   21 1
    27   19   26 1
    28   20   22 1
    29   20   27 1
    30   21   28 1
    31   22   29 1
    32    1   30 1
    33    3   31 1
    34    4   32 1
    35    5   33 1
    36    6   34 1
    37    7   35 1
    38    8   36 1
    39    9   37 1
    40   17   38 1
    41   17   39 1
    42   17   40 1
    43   18   41 1
    44   18   42 1
    45   18   43 1
    46   19   44 1
    47   19   45 1
    48   20   46 1
    49   20   47 1
    50   21   48 1
    51   21   49 1
    52   22   50 1
    53   22   51 1
    54   25   52 1
