@<TRIPOS>MOLECULE
4-(2,4-dichloro-5-methoxy-anilino)-6-methoxy-7-[3-(4-methylpiperazin-1-yl)propoxy]quinoline-3-carbonitrile
   65    68     0     0     0
SMALL
USER_CHARGES

@<TRIPOS>ATOM
      1 C1        -42.6326   -9.3455  -56.0070 C.1       1 MOL         0.4841
      2 C2        -42.5295  -14.0408  -57.8768 C.ar      1 MOL        -0.1500
      3 C3        -43.3510  -14.8205  -55.3595 C.ar      1 MOL        -0.1500
      4 C4        -40.3462   -9.3800  -57.9418 C.ar      1 MOL        -0.1500
      5 C5        -40.9562   -8.3141  -60.4476 C.ar      1 MOL        -0.1500
      6 C6        -43.1281  -11.3309  -54.7759 C.ar      1 MOL         0.1600
      7 C7        -42.7159  -10.7744  -55.9744 C.ar      1 MOL         0.0730
      8 C8        -42.6902  -13.0437  -56.8735 C.ar      1 MOL         0.0000
      9 C9        -43.1174  -13.4746  -55.5983 C.ar      1 MOL         0.3100
     10 C10       -41.2999  -10.0325  -58.7488 C.ar      1 MOL         0.1000
     11 C11       -42.4648  -11.6342  -57.0609 C.ar      1 MOL         0.1000
     12 C12       -42.7874  -15.3970  -57.6268 C.ar      1 MOL         0.0825
     13 C13       -43.1890  -15.7917  -56.3484 C.ar      1 MOL         0.0825
     14 C14       -39.7188   -8.1970  -58.3608 C.ar      1 MOL         0.0825
     15 C15       -41.5797   -9.4821  -60.0121 C.ar      1 MOL         0.1770
     16 C16       -40.0387   -7.6731  -59.6188 C.ar      1 MOL         0.1770
     17 C17       -48.0758  -19.5050  -57.1786 C.3       1 MOL         0.2700
     18 C18       -48.1800  -19.2728  -54.7839 C.3       1 MOL         0.2700
     19 C19       -46.6175  -19.9589  -57.0684 C.3       1 MOL         0.2700
     20 C20       -46.7178  -19.7216  -54.6744 C.3       1 MOL         0.2700
     21 C21       -50.2140  -19.4192  -56.0693 C.3       1 MOL         0.2700
     22 C22       -42.7433  -16.0146  -59.9256 C.3       1 MOL         0.2800
     23 C23       -38.5845   -7.8698  -56.2796 C.3       1 MOL         0.2800
     24 C24       -43.7269  -19.0759  -54.7554 C.3       1 MOL         0.0000
     25 C25       -44.5619  -19.7975  -55.8222 C.3       1 MOL         0.2700
     26 C26       -43.7680  -17.5507  -54.8403 C.3       1 MOL         0.2800
     27 N1        -42.6067   -8.1849  -56.0017 N.1       1 MOL        -0.5571
     28 N2        -43.3208  -12.6433  -54.5738 N.ar      1 MOL        -0.6200
     29 N3        -48.8231  -19.8566  -55.9662 N.3       1 MOL        -0.8100
     30 N4        -45.9673  -19.3708  -55.8882 N.3       1 MOL        -0.8100
     31 N5        -42.0062  -11.1817  -58.3256 N.pl3     1 MOL        -0.6000
     32 O1        -42.6660  -16.3992  -58.5570 O.3       1 MOL        -0.3625
     33 O2        -38.8044   -7.4853  -57.6293 O.3       1 MOL        -0.3625
     34 O3        -43.4045  -17.1338  -56.1575 O.3       1 MOL        -0.3625
     35 Cl1       -42.7229  -10.2282  -61.0743 Cl        1 MOL        -0.1770
     36 Cl2       -39.3194   -6.2094  -60.1891 Cl        1 MOL        -0.1770
     37 H1        -42.2047  -13.7443  -58.8702 H         1 MOL         0.1500
     38 H2        -43.6762  -15.0979  -54.3588 H         1 MOL         0.1500
     39 H3        -40.1081   -9.8048  -56.9702 H         1 MOL         0.1500
     40 H4        -41.1941   -7.8993  -61.4244 H         1 MOL         0.1500
     41 H5        -43.3357  -10.7144  -53.9058 H         1 MOL         0.1500
     42 H6        -48.1123  -18.4226  -57.3631 H         1 MOL         0.0000
     43 H7        -48.5253  -19.9997  -58.0480 H         1 MOL         0.0000
     44 H8        -48.7075  -19.5954  -53.8780 H         1 MOL         0.0000
     45 H9        -48.2260  -18.1755  -54.8145 H         1 MOL         0.0000
     46 H10       -46.5713  -21.0558  -57.0302 H         1 MOL         0.0000
     47 H11       -46.0926  -19.6418  -57.9780 H         1 MOL         0.0000
     48 H12       -46.2871  -19.2230  -53.7994 H         1 MOL         0.0000
     49 H13       -46.6751  -20.8032  -54.4886 H         1 MOL         0.0000
     50 H14       -50.7787  -19.7210  -55.1803 H         1 MOL         0.0000
     51 H15       -50.7029  -19.8925  -56.9280 H         1 MOL         0.0000
     52 H16       -50.2997  -18.3320  -56.1798 H         1 MOL         0.0000
     53 H17       -42.8487  -16.9271  -60.5211 H         1 MOL         0.0000
     54 H18       -41.8223  -15.5162  -60.2421 H         1 MOL         0.0000
     55 H19       -43.6215  -15.3895  -60.1224 H         1 MOL         0.0000
     56 H20       -37.9069   -7.1332  -55.8352 H         1 MOL         0.0000
     57 H21       -38.0960   -8.8470  -56.2267 H         1 MOL         0.0000
     58 H22       -39.5128   -7.8546  -55.6999 H         1 MOL         0.0000
     59 H23       -44.0288  -19.3897  -53.7498 H         1 MOL         0.0000
     60 H24       -42.6856  -19.3979  -54.8820 H         1 MOL         0.0000
     61 H25       -44.0851  -19.6089  -56.7931 H         1 MOL         0.0000
     62 H26       -44.4937  -20.8797  -55.6510 H         1 MOL         0.0000
     63 H27       -44.7734  -17.1847  -54.6008 H         1 MOL         0.0000
     64 H28       -43.0542  -17.1646  -54.1025 H         1 MOL         0.0000
     65 H29       -42.3501  -11.7325  -59.1062 H         1 MOL         0.4000
@<TRIPOS>BOND
     1    1    7 1
     2    1   27 3
     3    2    8 ar
     4    2   12 ar
     5    3    9 ar
     6    3   13 ar
     7    4   10 ar
     8    4   14 ar
     9    5   15 ar
    10    5   16 ar
    11    6    7 ar
    12    6   28 ar
    13    7   11 ar
    14    8    9 ar
    15    8   11 ar
    16    9   28 ar
    17   10   15 ar
    18   10   31 1
    19   11   31 1
    20   12   13 ar
    21   12   32 1
    22   13   34 1
    23   14   16 ar
    24   14   33 1
    25   15   35 1
    26   16   36 1
    27   17   19 1
    28   17   29 1
    29   18   20 1
    30   18   29 1
    31   19   30 1
    32   20   30 1
    33   21   29 1
    34   22   32 1
    35   23   33 1
    36   24   25 1
    37   24   26 1
    38   25   30 1
    39   26   34 1
    40    2   37 1
    41    3   38 1
    42    4   39 1
    43    5   40 1
    44    6   41 1
    45   17   42 1
    46   17   43 1
    47   18   44 1
    48   18   45 1
    49   19   46 1
    50   19   47 1
    51   20   48 1
    52   20   49 1
    53   21   50 1
    54   21   51 1
    55   21   52 1
    56   22   53 1
    57   22   54 1
    58   22   55 1
    59   23   56 1
    60   23   57 1
    61   23   58 1
    62   24   59 1
    63   24   60 1
    64   25   61 1
    65   25   62 1
    66   26   63 1
    67   26   64 1
    68   31   65 1
