@<TRIPOS>MOLECULE
~{N}-(2-chloro-6-methyl-phenyl)-2-[[6-[4-(2-hydroxyethyl)piperazin-1-yl]-2-methyl-pyrimidin-4-yl]amino]thiazole-5-carboxamide
   59    62     0     0     0
SMALL
USER_CHARGES

@<TRIPOS>ATOM
      1 C1        -41.8494  -12.4128  -56.8334 C.ar      1 MOL        -0.1287
      2 C2        -42.1055  -11.3897  -55.9205 C.ar      1 MOL        -0.1206
      3 C3        -41.7335  -12.1218  -58.1927 C.ar      1 MOL        -0.1156
      4 C4        -42.0223   -0.7195  -61.3387 C.ar      1 MOL        -0.4498
      5 C5        -43.2096   -5.6578  -58.8003 C.2       1 MOL         0.4038
      6 C6        -42.2458  -10.0757  -56.3669 C.ar      1 MOL        -0.0505
      7 C7        -42.1299   -9.7847  -57.7262 C.ar      1 MOL         0.0591
      8 C8        -41.8737  -10.8077  -58.6390 C.ar      1 MOL        -0.0121
      9 C9        -41.9520   -6.0685  -58.4106 C.2       1 MOL        -0.3015
     10 C10       -42.8460    0.2544  -61.8654 C.ar      1 MOL         0.6913
     11 C11       -42.6077   -1.5612  -60.4151 C.ar      1 MOL         0.7029
     12 C12       -44.5964   -0.4781  -60.6137 C.ar      1 MOL         0.6974
     13 C13       -42.0867   -3.8594  -59.3615 C.2       1 MOL         0.6643
     14 C14       -41.5280   -7.2942  -57.8224 C.2       1 MOL         0.7225
     15 C15       -40.8639    1.4607  -62.7366 C.3       1 MOL         0.2004
     16 C16       -43.1567    2.1664  -63.3796 C.3       1 MOL         0.2004
     17 C17       -40.3680    1.9850  -64.0866 C.3       1 MOL         0.1686
     18 C18       -42.5871    2.6666  -64.7090 C.3       1 MOL         0.1686
     19 C19       -42.5190   -9.0025  -55.3631 C.3       1 MOL        -0.0586
     20 C20       -46.0258   -0.3441  -60.2111 C.3       1 MOL        -0.1352
     21 C21       -40.6785    3.6310  -65.8169 C.3       1 MOL         0.1713
     22 C22       -41.1696    5.0535  -66.0141 C.3       1 MOL         0.1287
     23 N1        -43.2888   -4.3911  -59.3454 N.2       1 MOL        -0.6461
     24 N2        -44.1426    0.4044  -61.5242 N.ar      1 MOL        -0.7652
     25 N3        -43.8969   -1.4686  -60.0279 N.ar      1 MOL        -0.7141
     26 N4        -42.2903    1.1290  -62.8059 N.pl3     1 MOL        -0.7666
     27 N5        -41.1944    3.1046  -64.5538 N.3       1 MOL        -0.7440
     28 N6        -42.2785   -8.4453  -58.1666 N.am      1 MOL        -0.4686
     29 N7        -41.7962   -2.5752  -59.8501 N.pl3     1 MOL        -0.8342
     30 O1        -40.5691   -7.3673  -57.0160 O.2       1 MOL        -0.5936
     31 O2        -40.6368    5.5734  -67.2256 O.3       1 MOL        -0.6052
     32 S1        -40.8146   -4.8271  -58.7369 S.3       1 MOL        -0.0611
     33 Cl1       -41.7230  -10.4961  -60.3321 Cl        1 MOL        -0.1016
     34 H1        -41.7394  -13.4358  -56.4855 H         1 MOL         0.1385
     35 H2        -42.1952  -11.6271  -54.8636 H         1 MOL         0.1378
     36 H3        -41.5360  -12.9313  -58.8909 H         1 MOL         0.1483
     37 H4        -40.9831   -0.8171  -61.6315 H         1 MOL         0.1533
     38 H5        -44.1129   -6.2468  -58.7091 H         1 MOL         0.0463
     39 H6        -40.2814    0.5709  -62.4673 H         1 MOL         0.0520
     40 H7        -40.6954    2.2167  -61.9581 H         1 MOL         0.0520
     41 H8        -43.2499    3.0033  -62.6747 H         1 MOL         0.0520
     42 H9        -44.1627    1.7647  -63.5538 H         1 MOL         0.0520
     43 H10       -39.3276    2.3104  -63.9656 H         1 MOL         0.0406
     44 H11       -40.3712    1.1681  -64.8211 H         1 MOL         0.0406
     45 H12       -42.6608    1.8714  -65.4633 H         1 MOL         0.0406
     46 H13       -43.2079    3.5021  -65.0546 H         1 MOL         0.0406
     47 H14       -41.5775   -8.5828  -54.9916 H         1 MOL         0.0550
     48 H15       -43.1145   -8.1930  -55.8021 H         1 MOL         0.0550
     49 H16       -43.0888   -9.3936  -54.5116 H         1 MOL         0.0550
     50 H17       -46.6654   -0.9500  -60.8647 H         1 MOL         0.0649
     51 H18       -46.1803   -0.6700  -59.1742 H         1 MOL         0.0649
     52 H19       -46.3600    0.7002  -60.2686 H         1 MOL         0.0649
     53 H20       -41.0201    2.9775  -66.6258 H         1 MOL         0.0481
     54 H21       -39.5853    3.6079  -65.7750 H         1 MOL         0.0481
     55 H22       -40.8217    5.6874  -65.1925 H         1 MOL         0.0292
     56 H23       -42.2625    5.0991  -66.0619 H         1 MOL         0.0292
     57 H24       -43.0356   -8.2877  -58.8271 H         1 MOL         0.3237
     58 H25       -40.8180   -2.3177  -59.7887 H         1 MOL         0.4580
     59 H26       -40.9736    6.4796  -67.3129 H         1 MOL         0.4026
@<TRIPOS>BOND
     1    1    2 ar
     2    1    3 ar
     3    2    6 ar
     4    3    8 ar
     5    4   10 ar
     6    4   11 ar
     7    5    9 2
     8    5   23 1
     9    6    7 ar
    10    6   19 1
    11    7    8 ar
    12    7   28 1
    13    8   33 1
    14    9   14 1
    15    9   32 1
    16   10   24 ar
    17   10   26 1
    18   11   25 ar
    19   11   29 1
    20   12   20 1
    21   12   24 ar
    22   12   25 ar
    23   13   23 2
    24   13   29 1
    25   13   32 1
    26   14   28 am
    27   14   30 2
    28   15   17 1
    29   15   26 1
    30   16   18 1
    31   16   26 1
    32   17   27 1
    33   18   27 1
    34   21   22 1
    35   21   27 1
    36   22   31 1
    37    1   34 1
    38    2   35 1
    39    3   36 1
    40    4   37 1
    41    5   38 1
    42   15   39 1
    43   15   40 1
    44   16   41 1
    45   16   42 1
    46   17   43 1
    47   17   44 1
    48   18   45 1
    49   18   46 1
    50   19   47 1
    51   19   48 1
    52   19   49 1
    53   20   50 1
    54   20   51 1
    55   20   52 1
    56   21   53 1
    57   21   54 1
    58   22   55 1
    59   22   56 1
    60   28   57 1
    61   29   58 1
    62   31   59 1
