@<TRIPOS>MOLECULE
~{N}-(2-chloro-6-methyl-phenyl)-2-[[6-[4-(2-hydroxyethyl)piperazin-1-yl]-2-methyl-pyrimidin-4-yl]amino]thiazole-5-carboxamide
   59    62     0     0     0
SMALL
USER_CHARGES

@<TRIPOS>ATOM
      1 C1        -39.6814   -5.3537  -59.3999 C.ar      1 MOL        -0.1287
      2 C2        -39.0910   -6.0125  -58.3215 C.ar      1 MOL        -0.1206
      3 C3        -40.7198   -5.9622  -60.1051 C.ar      1 MOL        -0.1156
      4 C4        -43.4943  -15.8850  -56.3339 C.ar      1 MOL        -0.4498
      5 C5        -41.8063  -12.8023  -58.7920 C.2       1 MOL         0.4038
      6 C6        -39.5388   -7.2796  -57.9482 C.ar      1 MOL        -0.0505
      7 C7        -40.5771   -7.8881  -58.6535 C.ar      1 MOL         0.0591
      8 C8        -41.1676   -7.2294  -59.7319 C.ar      1 MOL        -0.0121
      9 C9        -41.6189  -11.5115  -58.3438 C.2       1 MOL        -0.3015
     10 C10       -43.9430  -17.1517  -56.0201 C.ar      1 MOL         0.6913
     11 C11       -43.6004  -14.9475  -55.3269 C.ar      1 MOL         0.7029
     12 C12       -44.5074  -16.4863  -53.9210 C.ar      1 MOL         0.6974
     13 C13       -42.5881  -13.0430  -56.7571 C.2       1 MOL         0.6643
     14 C14       -41.0790  -10.3766  -59.0136 C.2       1 MOL         0.7225
     15 C15       -42.8125  -18.1117  -58.0356 C.3       1 MOL         0.2004
     16 C16       -45.0098  -18.9606  -57.3435 C.3       1 MOL         0.2004
     17 C17       -43.4155  -17.6377  -59.3606 C.3       1 MOL         0.1686
     18 C18       -45.5875  -18.4901  -58.6860 C.3       1 MOL         0.1686
     19 C19       -38.8851   -7.9584  -56.7881 C.3       1 MOL        -0.0586
     20 C20       -45.0700  -16.8202  -52.5812 C.3       1 MOL        -0.1352
     21 C21       -45.1255  -18.0481  -61.0125 C.3       1 MOL         0.1713
     22 C22       -44.3107  -18.6060  -62.1733 C.3       1 MOL         0.1287
     23 N1        -42.3615  -13.6820  -57.8833 N.2       1 MOL        -0.6461
     24 N2        -44.4573  -17.4886  -54.8191 N.ar      1 MOL        -0.7652
     25 N3        -44.1040  -15.2146  -54.1040 N.ar      1 MOL        -0.7141
     26 N4        -43.8537  -18.1250  -57.0072 N.pl3     1 MOL        -0.7666
     27 N5        -44.5578  -18.4873  -59.7387 N.3       1 MOL        -0.7440
     28 N6        -41.0225   -9.1763  -58.2633 N.am      1 MOL        -0.4686
     29 N7        -43.1508  -13.6342  -55.6083 N.pl3     1 MOL        -0.8342
     30 O1        -40.7015  -10.4071  -60.2101 O.2       1 MOL        -0.5936
     31 O2        -44.8988  -18.1903  -63.3994 O.3       1 MOL        -0.6052
     32 S1        -42.1581  -11.3820  -56.7209 S.3       1 MOL        -0.0611
     33 Cl1       -42.4564   -7.9432  -60.6352 Cl        1 MOL        -0.1016
     34 H1        -39.3327   -4.3671  -59.6906 H         1 MOL         0.1385
     35 H2        -38.2829   -5.5294  -57.7784 H         1 MOL         0.1378
     36 H3        -41.1691   -5.4350  -60.9429 H         1 MOL         0.1483
     37 H4        -43.0852  -15.6423  -57.3080 H         1 MOL         0.1533
     38 H5        -41.5533  -13.1606  -59.7814 H         1 MOL         0.0463
     39 H6        -42.0052  -17.4324  -57.7518 H         1 MOL         0.0520
     40 H7        -42.3918  -19.1139  -58.1560 H         1 MOL         0.0520
     41 H8        -45.7804  -18.8705  -56.5785 H         1 MOL         0.0520
     42 H9        -44.7085  -20.0062  -57.4149 H         1 MOL         0.0520
     43 H10       -43.7263  -16.5914  -59.2692 H         1 MOL         0.0406
     44 H11       -42.6395  -17.6891  -60.1295 H         1 MOL         0.0406
     45 H12       -46.0219  -17.4884  -58.5664 H         1 MOL         0.0406
     46 H13       -46.4034  -19.1685  -58.9626 H         1 MOL         0.0406
     47 H14       -39.4035   -7.7012  -55.8576 H         1 MOL         0.0550
     48 H15       -38.9002   -9.0483  -56.9080 H         1 MOL         0.0550
     49 H16       -37.8335   -7.6608  -56.6974 H         1 MOL         0.0550
     50 H17       -44.2740  -17.1565  -51.9053 H         1 MOL         0.0649
     51 H18       -45.5658  -15.9513  -52.1290 H         1 MOL         0.0649
     52 H19       -45.8245  -17.6146  -52.6522 H         1 MOL         0.0649
     53 H20       -45.1358  -16.9481  -61.0433 H         1 MOL         0.0481
     54 H21       -46.1635  -18.4047  -61.0855 H         1 MOL         0.0481
     55 H22       -44.3091  -19.7003  -62.1533 H         1 MOL         0.0292
     56 H23       -43.2770  -18.2468  -62.1390 H         1 MOL         0.0292
     57 H24       -41.3740   -9.2271  -57.3104 H         1 MOL         0.3237
     58 H25       -43.2551  -12.9912  -54.8283 H         1 MOL         0.4580
     59 H26       -44.3544  -18.5634  -64.1112 H         1 MOL         0.4026
@<TRIPOS>BOND
     1    1    2 ar
     2    1    3 ar
     3    2    6 ar
     4    3    8 ar
     5    4   10 ar
     6    4   11 ar
     7    5    9 2
     8    5   23 1
     9    6    7 ar
    10    6   19 1
    11    7    8 ar
    12    7   28 1
    13    8   33 1
    14    9   14 1
    15    9   32 1
    16   10   24 ar
    17   10   26 1
    18   11   25 ar
    19   11   29 1
    20   12   20 1
    21   12   24 ar
    22   12   25 ar
    23   13   23 2
    24   13   29 1
    25   13   32 1
    26   14   28 am
    27   14   30 2
    28   15   17 1
    29   15   26 1
    30   16   18 1
    31   16   26 1
    32   17   27 1
    33   18   27 1
    34   21   22 1
    35   21   27 1
    36   22   31 1
    37    1   34 1
    38    2   35 1
    39    3   36 1
    40    4   37 1
    41    5   38 1
    42   15   39 1
    43   15   40 1
    44   16   41 1
    45   16   42 1
    46   17   43 1
    47   17   44 1
    48   18   45 1
    49   18   46 1
    50   19   47 1
    51   19   48 1
    52   19   49 1
    53   20   50 1
    54   20   51 1
    55   20   52 1
    56   21   53 1
    57   21   54 1
    58   22   55 1
    59   22   56 1
    60   28   57 1
    61   29   58 1
    62   31   59 1
