@<TRIPOS>MOLECULE
3-(2-imidazo[1,2-b]pyridazin-3-ylethynyl)-4-methyl-~{N}-[4-[(4-methylpiperazin-1-yl)methyl]-3-(trifluoromethyl)phenyl]benzamide
   66    70     0     0     0
SMALL
USER_CHARGES

@<TRIPOS>ATOM
      1 C1        -41.9279   -9.3376  -62.5461 C.1       1 MOL        -0.0824
      2 C2        -42.1727   -9.2609  -63.7198 C.1       1 MOL        -0.0641
      3 C3        -41.0852   -9.6550  -58.4224 C.ar      1 MOL        -0.0928
      4 C4        -40.7803   -8.4746  -59.1001 C.ar      1 MOL        -0.1469
      5 C5        -42.5388  -16.7777  -59.3696 C.ar      1 MOL        -0.0989
      6 C6        -42.2425  -15.4687  -59.7494 C.ar      1 MOL        -0.1357
      7 C7        -41.9413  -10.6095  -60.4701 C.ar      1 MOL        -0.0422
      8 C8        -42.6365  -14.7227  -57.4855 C.ar      1 MOL        -0.1519
      9 C9        -43.6297   -8.7646  -65.7223 C.2       1 MOL         0.3660
     10 C10       -41.6364   -9.4291  -61.1478 C.ar      1 MOL         0.0162
     11 C11       -42.4642   -9.1698  -65.1172 C.2       1 MOL        -0.0904
     12 C12       -41.6656  -10.7225  -59.1074 C.ar      1 MOL        -0.1640
     13 C13       -41.0559   -8.3616  -60.4627 C.ar      1 MOL        -0.0177
     14 C14       -42.8841  -17.0592  -58.0478 C.ar      1 MOL        -0.0515
     15 C15       -42.9329  -16.0317  -57.1057 C.ar      1 MOL        -0.1397
     16 C16       -42.2913  -14.4412  -58.8073 C.ar      1 MOL         0.0687
     17 C17       -42.3007   -9.2470  -67.3253 C.2       1 MOL         0.4191
     18 C18       -41.6123   -9.5005  -68.5348 C.2       1 MOL        -0.1548
     19 C19       -40.3507   -9.9445  -68.4957 C.2       1 MOL        -0.2590
     20 C20       -39.7528  -10.1432  -67.1537 C.2       1 MOL         0.3952
     21 C21       -41.9865  -11.9685  -58.3904 C.2       1 MOL         0.6862
     22 C22       -46.0123  -20.7850  -58.6642 C.3       1 MOL         0.1713
     23 C23       -46.9618  -18.7587  -57.7649 C.3       1 MOL         0.1713
     24 C24       -44.6257  -20.3515  -58.1762 C.3       1 MOL         0.1758
     25 C25       -45.5752  -18.3263  -57.2760 C.3       1 MOL         0.1758
     26 C26       -40.7164   -7.0812  -61.1561 C.3       1 MOL        -0.0720
     27 C27       -48.3884  -20.6334  -58.2806 C.3       1 MOL         0.1616
     28 C28       -43.1997  -18.4758  -57.6630 C.3       1 MOL         0.2178
     29 C29       -43.2980  -16.3098  -55.6845 C.3       1 MOL         0.6849
     30 N1        -43.5227   -8.8145  -67.0887 N.2       1 MOL        -0.6481
     31 N2        -40.3342   -9.9283  -66.0147 N.2       1 MOL        -0.4848
     32 N3        -41.6139   -9.4786  -66.1459 N.pl3     1 MOL         0.0695
     33 N4        -47.0666  -20.2223  -57.8115 N.3       1 MOL        -0.7397
     34 N5        -44.5218  -18.8878  -58.1303 N.3       1 MOL        -0.7542
     35 N6        -41.9931  -13.1320  -59.1863 N.am      1 MOL        -0.4697
     36 O1        -42.2582  -11.9566  -57.1917 O.2       1 MOL        -0.5824
     37 F1        -43.2971  -15.1972  -54.8934 F         1 MOL        -0.2397
     38 F2        -44.5421  -16.8521  -55.5378 F         1 MOL        -0.2397
     39 F3        -42.4414  -17.1869  -55.0864 F         1 MOL        -0.2397
     40 H1        -40.8647   -9.7319  -57.3606 H         1 MOL         0.1379
     41 H2        -40.3282   -7.6491  -58.5566 H         1 MOL         0.1431
     42 H3        -42.4990  -17.5713  -60.1112 H         1 MOL         0.1638
     43 H4        -41.9758  -15.2614  -60.7825 H         1 MOL         0.1821
     44 H5        -42.3939  -11.4461  -60.9995 H         1 MOL         0.1676
     45 H6        -42.6749  -13.9219  -56.7500 H         1 MOL         0.1446
     46 H7        -44.5442   -8.4372  -65.2478 H         1 MOL         0.0561
     47 H8        -42.1131   -9.3327  -69.4816 H         1 MOL         0.1708
     48 H9        -39.7650  -10.1584  -69.3791 H         1 MOL         0.1577
     49 H10       -38.7136  -10.5102  -67.1574 H         1 MOL         0.0530
     50 H11       -46.1483  -20.4772  -59.7099 H         1 MOL         0.0366
     51 H12       -46.0600  -21.8804  -58.6382 H         1 MOL         0.0366
     52 H13       -47.7120  -18.3555  -57.0738 H         1 MOL         0.0366
     53 H14       -47.1585  -18.3200  -58.7526 H         1 MOL         0.0366
     54 H15       -44.4283  -20.7897  -57.1884 H         1 MOL         0.0399
     55 H16       -43.8756  -20.7547  -58.8674 H         1 MOL         0.0399
     56 H17       -45.5275  -17.2308  -57.3008 H         1 MOL         0.0399
     57 H18       -45.4390  -18.6356  -56.2307 H         1 MOL         0.0399
     58 H19       -39.6954   -7.1242  -61.5510 H         1 MOL         0.0566
     59 H20       -41.4059   -6.8869  -61.9860 H         1 MOL         0.0566
     60 H21       -40.7919   -6.2290  -60.4702 H         1 MOL         0.0566
     61 H22       -49.1640  -20.2085  -57.6382 H         1 MOL         0.0319
     62 H23       -48.4739  -21.7233  -58.2619 H         1 MOL         0.0319
     63 H24       -48.5507  -20.2867  -59.3047 H         1 MOL         0.0319
     64 H25       -42.4618  -19.1648  -58.0882 H         1 MOL         0.0561
     65 H26       -43.1744  -18.6026  -56.5756 H         1 MOL         0.0561
     66 H27       -41.7461  -12.9986  -60.1737 H         1 MOL         0.3224
@<TRIPOS>BOND
     1    1    2 3
     2    1   10 1
     3    2   11 1
     4    3    4 ar
     5    3   12 ar
     6    4   13 ar
     7    5    6 ar
     8    5   14 ar
     9    6   16 ar
    10    7   10 ar
    11    7   12 ar
    12    8   15 ar
    13    8   16 ar
    14    9   11 2
    15    9   30 1
    16   10   13 ar
    17   11   32 1
    18   12   21 1
    19   13   26 1
    20   14   15 ar
    21   14   28 1
    22   15   29 1
    23   16   35 1
    24   17   18 1
    25   17   30 2
    26   17   32 1
    27   18   19 2
    28   19   20 1
    29   20   31 2
    30   21   35 am
    31   21   36 2
    32   22   24 1
    33   22   33 1
    34   23   25 1
    35   23   33 1
    36   24   34 1
    37   25   34 1
    38   27   33 1
    39   28   34 1
    40   29   37 1
    41   29   38 1
    42   29   39 1
    43   31   32 1
    44    3   40 1
    45    4   41 1
    46    5   42 1
    47    6   43 1
    48    7   44 1
    49    8   45 1
    50    9   46 1
    51   18   47 1
    52   19   48 1
    53   20   49 1
    54   22   50 1
    55   22   51 1
    56   23   52 1
    57   23   53 1
    58   24   54 1
    59   24   55 1
    60   25   56 1
    61   25   57 1
    62   26   58 1
    63   26   59 1
    64   26   60 1
    65   27   61 1
    66   27   62 1
    67   27   63 1
    68   28   64 1
    69   28   65 1
    70   35   66 1
