@<TRIPOS>MOLECULE
~{N}-(2-chloro-6-methyl-phenyl)-2-[[6-[4-(2-hydroxyethyl)piperazin-1-yl]-2-methyl-pyrimidin-4-yl]amino]thiazole-5-carboxamide
   59    62     0     0     0
SMALL
USER_CHARGES

@<TRIPOS>ATOM
      1 C1        -41.7033  -12.9084  -56.6904 C.ar      1 MOL        -0.1287
      2 C2        -42.1774  -11.9659  -55.7779 C.ar      1 MOL        -0.1206
      3 C3        -41.3729  -12.5179  -57.9881 C.ar      1 MOL        -0.1156
      4 C4        -41.8349   -0.9549  -60.4530 C.ar      1 MOL        -0.4498
      5 C5        -43.1280   -6.1127  -58.4618 C.2       1 MOL         0.4038
      6 C6        -42.3213  -10.6331  -56.1632 C.ar      1 MOL        -0.0505
      7 C7        -41.9910  -10.2426  -57.4610 C.ar      1 MOL         0.0591
      8 C8        -41.5168  -11.1851  -58.3734 C.ar      1 MOL        -0.0121
      9 C9        -41.9332   -6.4837  -57.8813 C.2       1 MOL        -0.3015
     10 C10       -42.6153    0.0092  -61.0580 C.ar      1 MOL         0.6913
     11 C11       -42.5167   -1.8880  -59.6989 C.ar      1 MOL         0.7029
     12 C12       -44.5056   -0.8985  -60.1807 C.ar      1 MOL         0.6974
     13 C13       -42.0411   -4.2238  -58.7082 C.2       1 MOL         0.6643
     14 C14       -41.5404   -7.7236  -57.3014 C.2       1 MOL         0.7225
     15 C15       -42.5317    2.3206  -61.9487 C.3       1 MOL         0.2004
     16 C16       -41.1710    0.5178  -62.9816 C.3       1 MOL         0.2004
     17 C17       -41.4585    3.3226  -62.3816 C.3       1 MOL         0.1686
     18 C18       -40.1414    1.5778  -63.3801 C.3       1 MOL         0.1686
     19 C19       -42.8312   -9.6479  -55.1615 C.3       1 MOL        -0.0586
     20 C20       -45.9887   -0.8672  -60.0294 C.3       1 MOL        -0.1352
     21 C21       -39.8001    3.8685  -64.0404 C.3       1 MOL         0.1713
     22 C22       -40.5060    5.0164  -64.7388 C.3       1 MOL         0.1287
     23 N1        -43.1918   -4.8170  -58.9362 N.2       1 MOL        -0.6461
     24 N2        -43.9582    0.0675  -60.9427 N.ar      1 MOL        -0.7652
     25 N3        -43.8566   -1.8896  -59.5404 N.ar      1 MOL        -0.7141
     26 N4        -41.9620    0.9747  -61.8320 N.pl3     1 MOL        -0.7666
     27 N5        -40.7848    2.8777  -63.6075 N.3       1 MOL        -0.7440
     28 N6        -42.1458   -8.8854  -57.8404 N.am      1 MOL        -0.4686
     29 N7        -41.7524   -2.8954  -59.0607 N.pl3     1 MOL        -0.8342
     30 O1        -40.7326   -7.8028  -56.3442 O.2       1 MOL        -0.5936
     31 O2        -41.1784    4.5259  -65.8917 O.3       1 MOL        -0.6052
     32 S1        -40.8373   -5.1653  -57.9275 S.3       1 MOL        -0.0611
     33 Cl1       -41.0959  -10.7491  -59.9917 Cl        1 MOL        -0.1016
     34 H1        -41.5904  -13.9460  -56.3899 H         1 MOL         0.1385
     35 H2        -42.4331  -12.2806  -54.7694 H         1 MOL         0.1378
     36 H3        -41.0069  -13.2656  -58.6874 H         1 MOL         0.1483
     37 H4        -40.7568   -0.9778  -60.5630 H         1 MOL         0.1533
     38 H5        -43.9943   -6.7528  -58.5666 H         1 MOL         0.0463
     39 H6        -42.9459    2.6407  -60.9845 H         1 MOL         0.0520
     40 H7        -43.3527    2.3148  -62.6780 H         1 MOL         0.0520
     41 H8        -41.8365    0.3065  -63.8292 H         1 MOL         0.0520
     42 H9        -40.6443   -0.4118  -62.7324 H         1 MOL         0.0520
     43 H10       -41.9437    4.2918  -62.5498 H         1 MOL         0.0406
     44 H11       -40.7329    3.4578  -61.5679 H         1 MOL         0.0406
     45 H12       -39.3740    1.6574  -62.5981 H         1 MOL         0.0406
     46 H13       -39.6402    1.2408  -64.2955 H         1 MOL         0.0406
     47 H14       -41.9965   -9.2068  -54.6054 H         1 MOL         0.0550
     48 H15       -43.3919   -8.8420  -55.6498 H         1 MOL         0.0550
     49 H16       -43.5136  -10.1264  -54.4487 H         1 MOL         0.0550
     50 H17       -46.4662   -1.4586  -60.8204 H         1 MOL         0.0649
     51 H18       -46.2990   -1.2720  -59.0573 H         1 MOL         0.0649
     52 H19       -46.3733    0.1598  -60.0828 H         1 MOL         0.0649
     53 H20       -39.0880    3.3748  -64.7092 H         1 MOL         0.0481
     54 H21       -39.2685    4.2305  -63.1552 H         1 MOL         0.0481
     55 H22       -39.7751    5.7624  -65.0658 H         1 MOL         0.0292
     56 H23       -41.2382    5.4978  -64.0823 H         1 MOL         0.0292
     57 H24       -42.7859   -8.7218  -58.6136 H         1 MOL         0.3237
     58 H25       -40.8178   -2.5924  -58.8125 H         1 MOL         0.4580
     59 H26       -41.6141    5.2877  -66.3064 H         1 MOL         0.4026
@<TRIPOS>BOND
     1    1    2 ar
     2    1    3 ar
     3    2    6 ar
     4    3    8 ar
     5    4   10 ar
     6    4   11 ar
     7    5    9 2
     8    5   23 1
     9    6    7 ar
    10    6   19 1
    11    7    8 ar
    12    7   28 1
    13    8   33 1
    14    9   14 1
    15    9   32 1
    16   10   24 ar
    17   10   26 1
    18   11   25 ar
    19   11   29 1
    20   12   20 1
    21   12   24 ar
    22   12   25 ar
    23   13   23 2
    24   13   29 1
    25   13   32 1
    26   14   28 am
    27   14   30 2
    28   15   17 1
    29   15   26 1
    30   16   18 1
    31   16   26 1
    32   17   27 1
    33   18   27 1
    34   21   22 1
    35   21   27 1
    36   22   31 1
    37    1   34 1
    38    2   35 1
    39    3   36 1
    40    4   37 1
    41    5   38 1
    42   15   39 1
    43   15   40 1
    44   16   41 1
    45   16   42 1
    46   17   43 1
    47   17   44 1
    48   18   45 1
    49   18   46 1
    50   19   47 1
    51   19   48 1
    52   19   49 1
    53   20   50 1
    54   20   51 1
    55   20   52 1
    56   21   53 1
    57   21   54 1
    58   22   55 1
    59   22   56 1
    60   28   57 1
    61   29   58 1
    62   31   59 1
