@<TRIPOS>MOLECULE
4-[(4-methylpiperazin-1-yl)methyl]-~{N}-[4-methyl-3-[[4-(3-pyridyl)pyrimidin-2-yl]amino]phenyl]benzamide
   68    72     0     0     0
SMALL
USER_CHARGES

@<TRIPOS>ATOM
      1 C1        -45.0212  -12.6818  -64.4024 C.ar      1 MOL        -0.2506
      2 C2        -44.1572  -11.5924  -64.4013 C.ar      1 MOL        -0.0711
      3 C3        -43.1848  -14.6561  -55.5962 C.ar      1 MOL        -0.0933
      4 C4        -42.6377  -14.6902  -57.9492 C.ar      1 MOL        -0.0933
      5 C5        -43.2554  -16.0491  -55.5924 C.ar      1 MOL        -0.1271
      6 C6        -42.7082  -16.0833  -57.9454 C.ar      1 MOL        -0.1271
      7 C7        -41.3513   -8.3620  -57.1545 C.ar      1 MOL        -0.0880
      8 C8        -41.6544   -9.7042  -56.9264 C.ar      1 MOL        -0.1675
      9 C9        -41.8830   -9.7345  -64.5040 C.ar      1 MOL        -0.4095
     10 C10       -41.3321  -10.1758  -59.2740 C.ar      1 MOL        -0.1860
     11 C11       -44.9298  -13.5831  -63.3540 C.ar      1 MOL         0.4040
     12 C12       -41.0156   -8.6732  -64.3444 C.ar      1 MOL         0.4616
     13 C13       -43.2295  -12.3966  -62.3644 C.ar      1 MOL         0.4307
     14 C14       -43.2412  -11.4398  -63.3665 C.ar      1 MOL        -0.2733
     15 C15       -42.8760  -13.9766  -56.7747 C.ar      1 MOL        -0.1523
     16 C16       -43.0170  -16.7627  -56.7670 C.ar      1 MOL        -0.0603
     17 C17       -41.0388   -7.9265  -58.4423 C.ar      1 MOL        -0.1448
     18 C18       -41.6447  -10.6112  -57.9862 C.ar      1 MOL         0.0847
     19 C19       -41.0292   -8.8335  -59.5020 C.ar      1 MOL         0.1772
     20 C20       -42.3309  -10.3200  -63.3374 C.ar      1 MOL         0.5363
     21 C21       -41.1170   -8.8652  -62.0817 C.ar      1 MOL         0.8872
     22 C22       -42.8018  -12.5241  -56.7797 C.2       1 MOL         0.6835
     23 C23       -45.4575  -20.6660  -58.4567 C.3       1 MOL         0.1708
     24 C24       -46.7495  -19.1136  -57.1389 C.3       1 MOL         0.1708
     25 C25       -44.1713  -20.1520  -57.8008 C.3       1 MOL         0.1753
     26 C26       -45.4631  -18.6008  -56.4823 C.3       1 MOL         0.1753
     27 C27       -40.7179   -6.4834  -58.6579 C.3       1 MOL        -0.0528
     28 C28       -47.8295  -21.0019  -58.1799 C.3       1 MOL         0.1609
     29 C29       -43.0920  -18.2622  -56.7621 C.3       1 MOL         0.2165
     30 N1        -44.0531  -13.4682  -62.3314 N.ar      1 MOL        -0.6654
     31 N2        -40.6101   -8.2104  -63.1437 N.ar      1 MOL        -0.7391
     32 N3        -41.9669   -9.9096  -62.1048 N.ar      1 MOL        -0.7480
     33 N4        -46.6031  -20.5149  -57.5512 N.3       1 MOL        -0.7397
     34 N5        -44.3185  -18.7506  -57.3891 N.3       1 MOL        -0.7459
     35 N6        -40.7159   -8.4095  -60.8123 N.pl3     1 MOL        -0.7209
     36 N7        -41.9533  -11.9752  -57.7537 N.am      1 MOL        -0.4687
     37 O1        -43.4209  -11.8375  -55.9551 O.2       1 MOL        -0.5862
     38 H1        -45.7442  -12.8212  -65.1978 H         1 MOL         0.1463
     39 H2        -44.2090  -10.8709  -65.2129 H         1 MOL         0.1439
     40 H3        -43.3722  -14.1094  -54.6757 H         1 MOL         0.1467
     41 H4        -42.3963  -14.1714  -58.8733 H         1 MOL         0.1467
     42 H5        -43.4963  -16.5703  -54.6698 H         1 MOL         0.1452
     43 H6        -42.5205  -16.6314  -58.8651 H         1 MOL         0.1452
     44 H7        -41.3611   -7.6631  -56.3222 H         1 MOL         0.1366
     45 H8        -41.8962  -10.0330  -55.9188 H         1 MOL         0.1760
     46 H9        -42.1834  -10.0746  -65.4872 H         1 MOL         0.1589
     47 H10       -41.3251  -10.8834  -60.1005 H         1 MOL         0.1531
     48 H11       -45.5813  -14.4500  -63.3088 H         1 MOL         0.0247
     49 H12       -40.6104   -8.1496  -65.2038 H         1 MOL         0.0273
     50 H13       -42.5393  -12.3346  -61.5279 H         1 MOL         0.0334
     51 H14       -45.6303  -20.1300  -59.4000 H         1 MOL         0.0372
     52 H15       -45.3185  -21.7253  -58.7047 H         1 MOL         0.0372
     53 H16       -47.5663  -19.0247  -56.4123 H         1 MOL         0.0372
     54 H17       -47.0051  -18.4771  -57.9970 H         1 MOL         0.0372
     55 H18       -43.9151  -20.7879  -56.9424 H         1 MOL         0.0379
     56 H19       -43.3546  -20.2409  -58.5275 H         1 MOL         0.0379
     57 H20       -45.6022  -17.5418  -56.2331 H         1 MOL         0.0379
     58 H21       -45.2899  -19.1381  -55.5399 H         1 MOL         0.0379
     59 H22       -39.6422   -6.3119  -58.5372 H         1 MOL         0.0437
     60 H23       -41.0137   -6.1579  -59.6626 H         1 MOL         0.0437
     61 H24       -41.2561   -5.8474  -57.9444 H         1 MOL         0.0437
     62 H25       -48.6744  -20.8841  -57.4964 H         1 MOL         0.0323
     63 H26       -47.7286  -22.0601  -58.4356 H         1 MOL         0.0323
     64 H27       -48.0351  -20.4385  -59.0940 H         1 MOL         0.0323
     65 H28       -42.2422  -18.6931  -57.3027 H         1 MOL         0.0434
     66 H29       -43.0596  -18.6540  -55.7400 H         1 MOL         0.0434
     67 H30       -40.0755   -7.6226  -60.8407 H         1 MOL         0.4542
     68 H31       -41.5010  -12.6429  -58.3734 H         1 MOL         0.3224
@<TRIPOS>BOND
     1    1    2 ar
     2    1   11 ar
     3    2   14 ar
     4    3    5 ar
     5    3   15 ar
     6    4    6 ar
     7    4   15 ar
     8    5   16 ar
     9    6   16 ar
    10    7    8 ar
    11    7   17 ar
    12    8   18 ar
    13    9   12 ar
    14    9   20 ar
    15   10   18 ar
    16   10   19 ar
    17   11   30 ar
    18   12   31 ar
    19   13   14 ar
    20   13   30 ar
    21   14   20 1
    22   15   22 1
    23   16   29 1
    24   17   19 ar
    25   17   27 1
    26   18   36 1
    27   19   35 1
    28   20   32 ar
    29   21   31 ar
    30   21   32 ar
    31   21   35 1
    32   22   36 am
    33   22   37 2
    34   23   25 1
    35   23   33 1
    36   24   26 1
    37   24   33 1
    38   25   34 1
    39   26   34 1
    40   28   33 1
    41   29   34 1
    42    1   38 1
    43    2   39 1
    44    3   40 1
    45    4   41 1
    46    5   42 1
    47    6   43 1
    48    7   44 1
    49    8   45 1
    50    9   46 1
    51   10   47 1
    52   11   48 1
    53   12   49 1
    54   13   50 1
    55   23   51 1
    56   23   52 1
    57   24   53 1
    58   24   54 1
    59   25   55 1
    60   25   56 1
    61   26   57 1
    62   26   58 1
    63   27   59 1
    64   27   60 1
    65   27   61 1
    66   28   62 1
    67   28   63 1
    68   28   64 1
    69   29   65 1
    70   29   66 1
    71   35   67 1
    72   36   68 1
