@<TRIPOS>MOLECULE
2fo0.A
45 48 1 0 0 
SMALL
USER_CHARGES


@<TRIPOS>ATOM
  1 O1      -1.0143    14.9845    48.8047 O.3   1 P16  -0.6800 
  2 H1      -1.3268    14.6773    49.6589 H     1 P16   0.4000 
  3 C2      -2.0142    14.6951    47.8562 C.3   1 P16   0.2635 
  4 H21     -2.9279    15.2076    48.1571 H     1 P16   0.0800 
  5 H22     -2.1841    13.6185    47.8577 H     1 P16   0.0800 
  6 C3      -1.6720    15.1258    46.4200 C.ar  1 P16  -0.1435 
  7 C4      -1.4551    14.1305    45.3954 C.ar  1 P16  -0.1500 
  8 H4      -1.5313    13.0815    45.6409 H     1 P16   0.1500 
  9 C5      -1.1416    14.5246    44.0647 C.ar  1 P16  -0.1500 
 10 H5      -0.9839    13.7686    43.3097 H     1 P16   0.1500 
 11 C6      -1.0324    15.9027    43.7120 C.ar  1 P16  -0.1500 
 12 H6      -0.7929    16.1853    42.6975 H     1 P16   0.1500 
 13 C7      -1.2432    16.9178    44.7163 C.ar  1 P16   0.1000 
 14 N9      -1.1372    18.3255    44.4832 N.pl3 1 P16  -0.6000 
 15 H9      -1.6623    18.9135    45.1146 H     1 P16   0.4000 
 16 C10     -0.4065    18.9960    43.5012 C.ar  1 P16   0.7200 
 17 N11     -0.4555    20.3972    43.5581 N.ar  1 P16  -0.6200 
 18 C12      0.2742    21.0811    42.6455 C.ar  1 P16   0.1600 
 19 H12      0.2520    22.1605    42.6708 H     1 P16   0.1500 
 20 C13      1.0783    20.4329    41.6432 C.ar  1 P16   0.0284 
 21 C16      1.8944    21.1342    40.6591 C.2   1 P16  -0.1784 
 22 H16      1.9206    22.2139    40.6621 H     1 P16   0.1500 
 23 C17      2.6352    20.4375    39.7218 C.2   1 P16  -0.0140 
 24 C18      2.6145    18.9315    39.7027 C.2   1 P16   0.6156 
 25 O21      3.2277    18.2290    38.9094 O.2   1 P16  -0.5700 
 26 N19      1.7858    18.2618    40.7044 N.am  1 P16  -0.4771 
 27 C14      1.0491    18.9796    41.6601 C.ar  1 P16   0.4270 
 28 N15      0.3106    18.3061    42.5905 N.ar  1 P16  -0.6200 
 29 C20      1.7329    16.7791    40.7396 C.3   1 P16   0.0601 
 30 H201     2.3529    16.3744    39.9397 H     1 P16   0.0800 
 31 H202     0.7031    16.4489    40.6037 H     1 P16   0.0800 
 32 H203     2.1040    16.4251    41.7014 H     1 P16   0.0800 
 33 C22      3.5011    21.1198    38.7188 C.ar  1 P16   0.0284 
 34 C27      3.0793    21.3451    37.3542 C.ar  1 P16   0.1770 
 35 CL28     1.5115    20.8311    36.7879 Cl    1 P16  -0.1770 
 36 C26      3.9475    22.0038    36.4195 C.ar  1 P16  -0.1500 
 37 H26      3.6197    22.1653    35.4032 H     1 P16   0.1500 
 38 C25      5.2412    22.4458    36.8270 C.ar  1 P16  -0.1500 
 39 H25      5.8876    22.9394    36.1164 H     1 P16   0.1500 
 40 C24      5.6839    22.2418    38.1574 C.ar  1 P16  -0.1500 
 41 H24      6.6632    22.5784    38.4642 H     1 P16   0.1500 
 42 C23      4.8250    21.5890    39.0849 C.ar  1 P16   0.1770 
 43 CL29     5.4545    21.3781    40.7186 Cl    1 P16  -0.1770 
 44 C8      -1.5635    16.5092    46.0751 C.ar  1 P16  -0.1500 
 45 H8      -1.7217    17.2612    46.8339 H     1 P16   0.1500 
@<TRIPOS>BOND
  1   1   2  1   
  2   1   3  1   
  3   3   4  1   
  4   3   5  1   
  5   3   6  1   
  6   6   7  ar  
  7   6  44  ar  
  8   7   8  1   
  9   7   9  ar  
 10   9  10  1   
 11   9  11  ar  
 12  11  12  1   
 13  11  13  ar  
 14  13  14  1   
 15  13  44  ar  
 16  14  15  1   
 17  14  16  1   
 18  16  17  ar  
 19  16  28  ar  
 20  17  18  ar  
 21  18  19  1   
 22  18  20  ar  
 23  20  21  1   
 24  20  27  ar  
 25  21  22  1   
 26  21  23  2   
 27  23  24  1   
 28  23  33  1   
 29  24  25  2   
 30  24  26  am  
 31  26  27  1   
 32  26  29  1   
 33  27  28  ar  
 34  29  30  1   
 35  29  31  1   
 36  29  32  1   
 37  33  34  ar  
 38  33  42  ar  
 39  34  35  1   
 40  34  36  ar  
 41  36  37  1   
 42  36  38  ar  
 43  38  39  1   
 44  38  40  ar  
 45  40  41  1   
 46  40  42  ar  
 47  42  43  1   
 48  44  45  1   
@<TRIPOS>SUBSTRUCTURE
  1 P16  27 GROUP 4 A **** 0

# MOE 2012.10 (io_trps.svl 2012.10)
