@<TRIPOS>MOLECULE
2fo0.A
435 290 145 0 0 
SMALL
USER_CHARGES


@<TRIPOS>ATOM
  1 O       -7.0246     5.8896    21.4113 O.3     1 HOH   0.0000 
  2 H1      -6.0646     5.8896    21.4113 H       1 HOH   0.0000 
  3 H2      -7.3149     6.5367    22.0584 H       1 HOH   0.0000 
  4 O        1.9218    33.1776    35.5224 O.3     2 HOH   0.0000 
  5 H1       2.8818    33.1776    35.5224 H       2 HOH   0.0000 
  6 H2       1.6315    33.8246    36.1695 H       2 HOH   0.0000 
  7 O      -14.1816     6.8763    12.7871 O.3     3 HOH   0.0000 
  8 H1     -13.2216     6.8763    12.7871 H       3 HOH   0.0000 
  9 H2     -14.4718     7.5234    13.4342 H       3 HOH   0.0000 
 10 O       -6.8315     9.6062    33.5042 O.3     4 HOH   0.0000 
 11 H1      -5.8715     9.6062    33.5042 H       4 HOH   0.0000 
 12 H2      -7.1218    10.2532    34.1512 H       4 HOH   0.0000 
 13 O      -21.9064     6.7823    34.9827 O.3     5 HOH  -0.8340 
 14 H1     -21.5832     7.6724    34.8424 H       5 HOH   0.4170 
 15 H2     -22.8551     6.8521    34.8769 H       5 HOH   0.4170 
 16 O        7.1636    41.7241    46.6147 O.3     6 HOH   0.0000 
 17 H1       8.1236    41.7241    46.6147 H       6 HOH   0.0000 
 18 H2       6.8733    42.3711    47.2617 H       6 HOH   0.0000 
 19 O       -4.3187    29.5545    38.4023 O.3     7 HOH   0.0000 
 20 H1      -3.3587    29.5545    38.4023 H       7 HOH   0.0000 
 21 H2      -4.6090    30.2015    39.0493 H       7 HOH   0.0000 
 22 O      -43.7674    49.1659    40.8144 O.3     8 HOH   0.0000 
 23 H1     -42.8074    49.1659    40.8144 H       8 HOH   0.0000 
 24 H2     -44.0576    49.8129    41.4614 H       8 HOH   0.0000 
 25 O       -2.6013    35.3223    29.1070 O.3     9 HOH   0.0000 
 26 H1      -1.6413    35.3223    29.1070 H       9 HOH   0.0000 
 27 H2      -2.8916    35.9694    29.7540 H       9 HOH   0.0000 
 28 O       -9.0868     7.1782    22.6082 O.3    10 HOH   0.0000 
 29 H1      -8.1268     7.1782    22.6082 H      10 HOH   0.0000 
 30 H2      -9.3770     7.8252    23.2553 H      10 HOH   0.0000 
 31 O      -14.1643     6.0902    22.1909 O.3    11 HOH   0.0000 
 32 H1     -13.2043     6.0902    22.1909 H      11 HOH   0.0000 
 33 H2     -14.4546     6.7372    22.8379 H      11 HOH   0.0000 
 34 O       -9.3661    -1.5320    11.3466 O.3    12 HOH   0.0000 
 35 H1      -8.4061    -1.5320    11.3466 H      12 HOH   0.0000 
 36 H2      -9.6563    -0.8850    11.9937 H      12 HOH   0.0000 
 37 O      -21.0950    24.8263    32.5466 O.3    13 HOH   0.0000 
 38 H1     -20.1350    24.8263    32.5466 H      13 HOH   0.0000 
 39 H2     -21.3853    25.4733    33.1936 H      13 HOH   0.0000 
 40 O       -3.1009    40.1191    41.2013 O.3    14 HOH   0.0000 
 41 H1      -2.1409    40.1191    41.2013 H      14 HOH   0.0000 
 42 H2      -3.3912    40.7661    41.8483 H      14 HOH   0.0000 
 43 O      -21.9440    29.3101    47.2478 O.3    15 HOH   0.0000 
 44 H1     -20.9840    29.3101    47.2478 H      15 HOH   0.0000 
 45 H2     -22.2343    29.9572    47.8948 H      15 HOH   0.0000 
 46 O       -6.9242    36.9307    38.9789 O.3    16 HOH   0.0000 
 47 H1      -5.9642    36.9307    38.9789 H      16 HOH   0.0000 
 48 H2      -7.2145    37.5777    39.6259 H      16 HOH   0.0000 
 49 O      -39.9614    42.4204    40.2436 O.3    17 HOH   0.0000 
 50 H1     -39.0014    42.4204    40.2436 H      17 HOH   0.0000 
 51 H2     -40.2517    43.0675    40.8906 H      17 HOH   0.0000 
 52 O       -4.2966    11.7894    43.7367 O.3    18 HOH  -0.8340 
 53 H1      -4.9658    11.4423    43.1468 H      18 HOH   0.4170 
 54 H2      -4.6629    11.6685    44.6127 H      18 HOH   0.4170 
 55 O      -35.4723    38.2252    53.4542 O.3    19 HOH   0.0000 
 56 H1     -34.5123    38.2252    53.4542 H      19 HOH   0.0000 
 57 H2     -35.7626    38.8723    54.1012 H      19 HOH   0.0000 
 58 O        5.4765    12.6301    40.8505 O.3    20 HOH  -0.8340 
 59 H1       6.1934    11.9982    40.9060 H      20 HOH   0.4170 
 60 H2       4.9800    12.5013    41.6586 H      20 HOH   0.4170 
 61 O       10.9058    30.8867    53.6529 O.3    21 HOH   0.0000 
 62 H1      11.8658    30.8867    53.6529 H      21 HOH   0.0000 
 63 H2      10.6155    31.5337    54.3000 H      21 HOH   0.0000 
 64 O      -18.4168    15.2652    11.8230 O.3    22 HOH   0.0000 
 65 H1     -17.4568    15.2652    11.8230 H      22 HOH   0.0000 
 66 H2     -18.7071    15.9122    12.4700 H      22 HOH   0.0000 
 67 O       -0.0272    26.6277    47.5329 O.3    23 HOH   0.0000 
 68 H1       0.9328    26.6277    47.5329 H      23 HOH   0.0000 
 69 H2      -0.3175    27.2748    48.1800 H      23 HOH   0.0000 
 70 O      -15.5385    10.3315    12.4151 O.3    24 HOH   0.0000 
 71 H1     -14.5785    10.3315    12.4151 H      24 HOH   0.0000 
 72 H2     -15.8288    10.9785    13.0621 H      24 HOH   0.0000 
 73 O       -2.2897    38.2324    39.2397 O.3    25 HOH   0.0000 
 74 H1      -1.3297    38.2324    39.2397 H      25 HOH   0.0000 
 75 H2      -2.5800    38.8795    39.8867 H      25 HOH   0.0000 
 76 O       -9.7194    29.0660    22.1234 O.3    26 HOH   0.0000 
 77 H1      -8.7594    29.0660    22.1234 H      26 HOH   0.0000 
 78 H2     -10.0096    29.7131    22.7704 H      26 HOH   0.0000 
 79 O       -3.6437    15.4995    25.5781 O.3    27 HOH   0.0000 
 80 H1      -2.6837    15.4995    25.5781 H      27 HOH   0.0000 
 81 H2      -3.9340    16.1465    26.2251 H      27 HOH   0.0000 
 82 O      -21.1577    41.6314    36.0116 O.3    28 HOH   0.0000 
 83 H1     -20.1977    41.6314    36.0116 H      28 HOH   0.0000 
 84 H2     -21.4480    42.2784    36.6587 H      28 HOH   0.0000 
 85 O        6.7586    23.3163    28.1893 O.3    29 HOH   0.0000 
 86 H1       7.7186    23.3163    28.1893 H      29 HOH   0.0000 
 87 H2       6.4683    23.9633    28.8364 H      29 HOH   0.0000 
 88 O      -32.0048    22.1146    29.5088 O.3    30 HOH   0.0000 
 89 H1     -31.0448    22.1146    29.5088 H      30 HOH   0.0000 
 90 H2     -32.2951    22.7616    30.1558 H      30 HOH   0.0000 
 91 O      -13.0925    40.1161    41.7229 O.3    31 HOH   0.0000 
 92 H1     -12.1325    40.1161    41.7229 H      31 HOH   0.0000 
 93 H2     -13.3828    40.7632    42.3700 H      31 HOH   0.0000 
 94 O       -2.9781    25.4533    20.2221 O.3    32 HOH   0.0000 
 95 H1      -2.0181    25.4533    20.2221 H      32 HOH   0.0000 
 96 H2      -3.2684    26.1003    20.8691 H      32 HOH   0.0000 
 97 O        8.5175    34.1509    43.9798 O.3    33 HOH   0.0000 
 98 H1       9.4775    34.1509    43.9798 H      33 HOH   0.0000 
 99 H2       8.2272    34.7979    44.6269 H      33 HOH   0.0000 
100 O      -32.3132    22.4750    40.4317 O.3    34 HOH   0.0000 
101 H1     -31.3532    22.4750    40.4317 H      34 HOH   0.0000 
102 H2     -32.6035    23.1221    41.0788 H      34 HOH   0.0000 
103 O       -9.5859     6.2410    33.9352 O.3    35 HOH   0.0000 
104 H1      -8.6259     6.2410    33.9352 H      35 HOH   0.0000 
105 H2      -9.8762     6.8881    34.5823 H      35 HOH   0.0000 
106 O      -32.4998    23.9508    38.0977 O.3    36 HOH   0.0000 
107 H1     -31.5398    23.9508    38.0977 H      36 HOH   0.0000 
108 H2     -32.7900    24.5978    38.7447 H      36 HOH   0.0000 
109 O        6.0035    33.4636    59.0655 O.3    37 HOH   0.0000 
110 H1       6.9635    33.4636    59.0655 H      37 HOH   0.0000 
111 H2       5.7133    34.1106    59.7126 H      37 HOH   0.0000 
112 O       -2.4248    16.0048    22.0260 O.3    38 HOH   0.0000 
113 H1      -1.4648    16.0048    22.0260 H      38 HOH   0.0000 
114 H2      -2.7151    16.6518    22.6730 H      38 HOH   0.0000 
115 O       -5.3190    46.7154    56.3488 O.3    39 HOH   0.0000 
116 H1      -4.3590    46.7154    56.3488 H      39 HOH   0.0000 
117 H2      -5.6092    47.3625    56.9959 H      39 HOH   0.0000 
118 O       -2.5050    22.6407    17.0100 O.3    40 HOH   0.0000 
119 H1      -1.5450    22.6407    17.0100 H      40 HOH   0.0000 
120 H2      -2.7953    23.2878    17.6570 H      40 HOH   0.0000 
121 O      -16.5125    13.1967    48.1251 O.3    41 HOH  -0.8340 
122 H1     -16.1429    13.7243    47.4170 H      41 HOH   0.4170 
123 H2     -16.9891    13.8244    48.6684 H      41 HOH   0.4170 
124 O      -12.6188    -0.3964    32.0173 O.3    42 HOH   0.0000 
125 H1     -11.6588    -0.3964    32.0173 H      42 HOH   0.0000 
126 H2     -12.9091     0.2507    32.6643 H      42 HOH   0.0000 
127 O      -27.8820    22.5674    42.0709 O.3    43 HOH   0.0000 
128 H1     -26.9220    22.5674    42.0709 H      43 HOH   0.0000 
129 H2     -28.1723    23.2144    42.7179 H      43 HOH   0.0000 
130 O      -23.7994     4.0702    23.3137 O.3    44 HOH   0.0000 
131 H1     -22.8394     4.0702    23.3137 H      44 HOH   0.0000 
132 H2     -24.0896     4.7172    23.9607 H      44 HOH   0.0000 
133 O      -40.9539    47.0768    48.4466 O.3    45 HOH   0.0000 
134 H1     -39.9939    47.0768    48.4466 H      45 HOH   0.0000 
135 H2     -41.2442    47.7239    49.0936 H      45 HOH   0.0000 
136 O      -25.9406    49.4272    45.5670 O.3    46 HOH   0.0000 
137 H1     -24.9806    49.4272    45.5670 H      46 HOH   0.0000 
138 H2     -26.2309    50.0742    46.2140 H      46 HOH   0.0000 
139 O       11.8913    35.8365    34.1088 O.3    47 HOH   0.0000 
140 H1      12.8513    35.8365    34.1088 H      47 HOH   0.0000 
141 H2      11.6010    36.4836    34.7559 H      47 HOH   0.0000 
142 O       13.1940    37.4947    42.1352 O.3    48 HOH   0.0000 
143 H1      14.1540    37.4947    42.1352 H      48 HOH   0.0000 
144 H2      12.9037    38.1417    42.7822 H      48 HOH   0.0000 
145 O       -7.3480    12.9164    44.5393 O.3    49 HOH  -0.8340 
146 H1      -7.1120    12.9262    43.6117 H      49 HOH   0.4170 
147 H2      -7.2822    13.8311    44.8133 H      49 HOH   0.4170 
148 O        9.1892    40.0737    48.8215 O.3    50 HOH   0.0000 
149 H1      10.1492    40.0737    48.8215 H      50 HOH   0.0000 
150 H2       8.8989    40.7208    49.4685 H      50 HOH   0.0000 
151 O      -17.6833    53.9625    44.3447 O.3    51 HOH   0.0000 
152 H1     -16.7233    53.9625    44.3447 H      51 HOH   0.0000 
153 H2     -17.9736    54.6095    44.9917 H      51 HOH   0.0000 
154 O        1.3641    53.4616    43.2397 O.3    52 HOH   0.0000 
155 H1       2.3241    53.4616    43.2397 H      52 HOH   0.0000 
156 H2       1.0739    54.1087    43.8867 H      52 HOH   0.0000 
157 O      -27.9551    48.8028    43.3673 O.3    53 HOH   0.0000 
158 H1     -26.9951    48.8028    43.3673 H      53 HOH   0.0000 
159 H2     -28.2454    49.4498    44.0144 H      53 HOH   0.0000 
160 O      -44.1674    36.2169    50.1851 O.3    54 HOH   0.0000 
161 H1     -43.2074    36.2169    50.1851 H      54 HOH   0.0000 
162 H2     -44.4577    36.8639    50.8322 H      54 HOH   0.0000 
163 O       -0.1025    19.8493    53.2345 O.3    55 HOH   0.0000 
164 H1       0.8575    19.8493    53.2345 H      55 HOH   0.0000 
165 H2      -0.3928    20.4964    53.8815 H      55 HOH   0.0000 
166 O        2.3019    40.8008    32.6564 O.3    56 HOH   0.0000 
167 H1       3.2619    40.8008    32.6564 H      56 HOH   0.0000 
168 H2       2.0116    41.4479    33.3035 H      56 HOH   0.0000 
169 O      -10.1001    -5.9852    27.6886 O.3    57 HOH   0.0000 
170 H1      -9.1401    -5.9852    27.6886 H      57 HOH   0.0000 
171 H2     -10.3904    -5.3381    28.3357 H      57 HOH   0.0000 
172 O       -2.4412    25.3028    48.9015 O.3    58 HOH   0.0000 
173 H1      -1.4812    25.3028    48.9015 H      58 HOH   0.0000 
174 H2      -2.7315    25.9499    49.5485 H      58 HOH   0.0000 
175 O      -36.1687    28.3611    36.7134 O.3    59 HOH   0.0000 
176 H1     -35.2087    28.3611    36.7134 H      59 HOH   0.0000 
177 H2     -36.4590    29.0081    37.3604 H      59 HOH   0.0000 
178 O       -4.3029    -0.0340    19.0779 O.3    60 HOH   0.0000 
179 H1      -3.3429    -0.0340    19.0779 H      60 HOH   0.0000 
180 H2      -4.5931     0.6131    19.7250 H      60 HOH   0.0000 
181 O      -12.4626    44.1439    41.0791 O.3    61 HOH   0.0000 
182 H1     -11.5026    44.1439    41.0791 H      61 HOH   0.0000 
183 H2     -12.7529    44.7910    41.7261 H      61 HOH   0.0000 
184 O       -3.9179    26.5171    45.5346 O.3    62 HOH   0.0000 
185 H1      -2.9579    26.5171    45.5346 H      62 HOH   0.0000 
186 H2      -4.2082    27.1641    46.1817 H      62 HOH   0.0000 
187 O        1.9054    53.2668    38.1413 O.3    63 HOH   0.0000 
188 H1       2.8654    53.2668    38.1413 H      63 HOH   0.0000 
189 H2       1.6151    53.9139    38.7884 H      63 HOH   0.0000 
190 O      -20.6002    24.4658    35.4508 O.3    64 HOH   0.0000 
191 H1     -19.6402    24.4658    35.4508 H      64 HOH   0.0000 
192 H2     -20.8905    25.1129    36.0979 H      64 HOH   0.0000 
193 O       -6.4014    30.1639    42.9011 O.3    65 HOH   0.0000 
194 H1      -5.4414    30.1639    42.9011 H      65 HOH   0.0000 
195 H2      -6.6917    30.8110    43.5481 H      65 HOH   0.0000 
196 O      -30.9727    42.6219    33.7337 O.3    66 HOH   0.0000 
197 H1     -30.0127    42.6219    33.7337 H      66 HOH   0.0000 
198 H2     -31.2630    43.2689    34.3808 H      66 HOH   0.0000 
199 O       -9.2231    50.5127    56.5984 O.3    67 HOH   0.0000 
200 H1      -8.2631    50.5127    56.5984 H      67 HOH   0.0000 
201 H2      -9.5134    51.1598    57.2454 H      67 HOH   0.0000 
202 O      -17.3544     9.6211    17.3516 O.3    68 HOH   0.0000 
203 H1     -16.3944     9.6211    17.3516 H      68 HOH   0.0000 
204 H2     -17.6447    10.2681    17.9986 H      68 HOH   0.0000 
205 O        4.8697    23.7095    30.4984 O.3    69 HOH  -0.8340 
206 H1       4.1007    23.5611    31.0487 H      69 HOH   0.4170 
207 H2       5.4883    23.0281    30.7618 H      69 HOH   0.4170 
208 O      -16.1687    28.5934    32.8610 O.3    70 HOH   0.0000 
209 H1     -15.2087    28.5934    32.8610 H      70 HOH   0.0000 
210 H2     -16.4590    29.2404    33.5081 H      70 HOH   0.0000 
211 O       -5.4563    -1.9556    16.8753 O.3    71 HOH   0.0000 
212 H1      -4.4963    -1.9556    16.8753 H      71 HOH   0.0000 
213 H2      -5.7466    -1.3086    17.5223 H      71 HOH   0.0000 
214 O      -17.6509    17.8352    15.3591 O.3    72 HOH   0.0000 
215 H1     -16.6909    17.8352    15.3591 H      72 HOH   0.0000 
216 H2     -17.9411    18.4823    16.0062 H      72 HOH   0.0000 
217 O        5.7851    47.0987    38.6433 O.3    73 HOH   0.0000 
218 H1       6.7451    47.0987    38.6433 H      73 HOH   0.0000 
219 H2       5.4948    47.7458    39.2904 H      73 HOH   0.0000 
220 O      -33.9003    25.6059    54.4880 O.3    74 HOH   0.0000 
221 H1     -32.9403    25.6059    54.4880 H      74 HOH   0.0000 
222 H2     -34.1905    26.2530    55.1351 H      74 HOH   0.0000 
223 O       24.4196    10.6749    34.6828 O.3    75 HOH   0.0000 
224 H1      25.3796    10.6749    34.6828 H      75 HOH   0.0000 
225 H2      24.1293    11.3220    35.3298 H      75 HOH   0.0000 
226 O        9.1282    35.5710    46.1678 O.3    76 HOH   0.0000 
227 H1      10.0882    35.5710    46.1678 H      76 HOH   0.0000 
228 H2       8.8379    36.2181    46.8148 H      76 HOH   0.0000 
229 O      -10.7239    30.7593    28.9515 O.3    77 HOH   0.0000 
230 H1      -9.7639    30.7593    28.9515 H      77 HOH   0.0000 
231 H2     -11.0142    31.4063    29.5985 H      77 HOH   0.0000 
232 O       -5.7554    41.3275    39.6930 O.3    78 HOH   0.0000 
233 H1      -4.7954    41.3275    39.6930 H      78 HOH   0.0000 
234 H2      -6.0457    41.9745    40.3401 H      78 HOH   0.0000 
235 O      -35.1439    29.8907    54.5985 O.3    79 HOH   0.0000 
236 H1     -34.1839    29.8907    54.5985 H      79 HOH   0.0000 
237 H2     -35.4342    30.5377    55.2455 H      79 HOH   0.0000 
238 O       -1.4026    32.4542    43.6997 O.3    80 HOH   0.0000 
239 H1      -0.4426    32.4542    43.6997 H      80 HOH   0.0000 
240 H2      -1.6929    33.1013    44.3468 H      80 HOH   0.0000 
241 O      -15.0682    21.2776    13.5742 O.3    81 HOH   0.0000 
242 H1     -14.1082    21.2776    13.5742 H      81 HOH   0.0000 
243 H2     -15.3584    21.9246    14.2212 H      81 HOH   0.0000 
244 O        9.5972     9.6932    39.3157 O.3    82 HOH   0.0000 
245 H1      10.5572     9.6932    39.3157 H      82 HOH   0.0000 
246 H2       9.3069    10.3402    39.9628 H      82 HOH   0.0000 
247 O      -38.6704    29.4311    37.0674 O.3    83 HOH   0.0000 
248 H1     -37.7104    29.4311    37.0674 H      83 HOH   0.0000 
249 H2     -38.9607    30.0781    37.7144 H      83 HOH   0.0000 
250 O        7.6123    37.2958    47.9001 O.3    84 HOH   0.0000 
251 H1       8.5723    37.2958    47.9001 H      84 HOH   0.0000 
252 H2       7.3221    37.9428    48.5472 H      84 HOH   0.0000 
253 O       -7.3603    34.2990    31.8396 O.3    85 HOH   0.0000 
254 H1      -6.4003    34.2990    31.8396 H      85 HOH   0.0000 
255 H2      -7.6506    34.9460    32.4866 H      85 HOH   0.0000 
256 O      -37.6108    47.6754    48.3124 O.3    86 HOH   0.0000 
257 H1     -36.6508    47.6754    48.3124 H      86 HOH   0.0000 
258 H2     -37.9011    48.3224    48.9594 H      86 HOH   0.0000 
259 O      -26.8246    20.0373    43.3715 O.3    87 HOH   0.0000 
260 H1     -25.8646    20.0373    43.3715 H      87 HOH   0.0000 
261 H2     -27.1149    20.6844    44.0185 H      87 HOH   0.0000 
262 O       -4.2466    35.4583    51.0848 O.3    88 HOH   0.0000 
263 H1      -3.2866    35.4583    51.0848 H      88 HOH   0.0000 
264 H2      -4.5368    36.1053    51.7319 H      88 HOH   0.0000 
265 O        0.5795    36.2188    29.6836 O.3    89 HOH   0.0000 
266 H1       1.5395    36.2188    29.6836 H      89 HOH   0.0000 
267 H2       0.2892    36.8659    30.3306 H      89 HOH   0.0000 
268 O      -14.4000    23.6419    14.4952 O.3    90 HOH   0.0000 
269 H1     -13.4400    23.6419    14.4952 H      90 HOH   0.0000 
270 H2     -14.6903    24.2890    15.1423 H      90 HOH   0.0000 
271 O      -31.2177    24.7005    34.9139 O.3    91 HOH   0.0000 
272 H1     -30.2577    24.7005    34.9139 H      91 HOH   0.0000 
273 H2     -31.5080    25.3475    35.5610 H      91 HOH   0.0000 
274 O       -1.0227    29.4281    47.0649 O.3    92 HOH   0.0000 
275 H1      -0.0627    29.4281    47.0649 H      92 HOH   0.0000 
276 H2      -1.3129    30.0752    47.7120 H      92 HOH   0.0000 
277 O      -18.7659    28.4921    33.7131 O.3    93 HOH   0.0000 
278 H1     -17.8059    28.4921    33.7131 H      93 HOH   0.0000 
279 H2     -19.0561    29.1391    34.3601 H      93 HOH   0.0000 
280 O      -27.3473    22.0723    35.1496 O.3    94 HOH   0.0000 
281 H1     -26.3873    22.0723    35.1496 H      94 HOH   0.0000 
282 H2     -27.6375    22.7194    35.7967 H      94 HOH   0.0000 
283 O      -22.6846    22.9719    36.8978 O.3    95 HOH   0.0000 
284 H1     -21.7246    22.9719    36.8978 H      95 HOH   0.0000 
285 H2     -22.9749    23.6190    37.5448 H      95 HOH   0.0000 
286 O        1.4331    29.6364    36.3456 O.3    96 HOH   0.0000 
287 H1       2.3931    29.6364    36.3456 H      96 HOH   0.0000 
288 H2       1.1428    30.2835    36.9926 H      96 HOH   0.0000 
289 O        7.9804    14.3861    21.9494 O.3    97 HOH   0.0000 
290 H1       8.9404    14.3861    21.9494 H      97 HOH   0.0000 
291 H2       7.6901    15.0332    22.5964 H      97 HOH   0.0000 
292 O       15.2482    23.6949    53.8212 O.3    98 HOH   0.0000 
293 H1      16.2082    23.6949    53.8212 H      98 HOH   0.0000 
294 H2      14.9579    24.3420    54.4682 H      98 HOH   0.0000 
295 O       -0.1106    33.9677    45.2294 O.3    99 HOH   0.0000 
296 H1       0.8494    33.9677    45.2294 H      99 HOH   0.0000 
297 H2      -0.4009    34.6147    45.8764 H      99 HOH   0.0000 
298 O        2.3946    17.6236    28.4470 O.3   100 HOH   0.0000 
299 H1       3.3546    17.6236    28.4470 H     100 HOH   0.0000 
300 H2       2.1043    18.2707    29.0940 H     100 HOH   0.0000 
301 O      -11.5706    22.8003    11.8187 O.3   101 HOH   0.0000 
302 H1     -10.6106    22.8003    11.8187 H     101 HOH   0.0000 
303 H2     -11.8609    23.4473    12.4657 H     101 HOH   0.0000 
304 O       -4.7510    11.9320    46.3440 O.3   102 HOH  -0.8340 
305 H1      -5.4315    12.5324    46.6485 H     102 HOH   0.4170 
306 H2      -4.6677    11.2874    47.0468 H     102 HOH   0.4170 
307 O      -19.2517    30.8983    35.2531 O.3   103 HOH   0.0000 
308 H1     -18.2917    30.8983    35.2531 H     103 HOH   0.0000 
309 H2     -19.5420    31.5453    35.9001 H     103 HOH   0.0000 
310 O        3.4834    34.1218    58.8826 O.3   104 HOH   0.0000 
311 H1       4.4434    34.1218    58.8826 H     104 HOH   0.0000 
312 H2       3.1931    34.7689    59.5296 H     104 HOH   0.0000 
313 O      -24.2423    53.0720    43.0078 O.3   105 HOH   0.0000 
314 H1     -23.2823    53.0720    43.0078 H     105 HOH   0.0000 
315 H2     -24.5326    53.7190    43.6548 H     105 HOH   0.0000 
316 O       -1.6425    35.3655    49.9564 O.3   106 HOH   0.0000 
317 H1      -0.6825    35.3655    49.9564 H     106 HOH   0.0000 
318 H2      -1.9327    36.0125    50.6035 H     106 HOH   0.0000 
319 O      -13.3750    29.7874    29.0895 O.3   107 HOH   0.0000 
320 H1     -12.4150    29.7874    29.0895 H     107 HOH   0.0000 
321 H2     -13.6653    30.4345    29.7366 H     107 HOH   0.0000 
322 O      -30.5263    23.9879    27.0973 O.3   108 HOH   0.0000 
323 H1     -29.5663    23.9879    27.0973 H     108 HOH   0.0000 
324 H2     -30.8166    24.6349    27.7444 H     108 HOH   0.0000 
325 O      -40.4306    46.3728    29.6659 O.3   109 HOH  -0.8340 
326 H1     -39.8046    46.0690    29.0085 H     109 HOH   0.4170 
327 H2     -40.4871    45.6530    30.2942 H     109 HOH   0.4170 
328 O      -20.5777     3.3496    12.8566 O.3   110 HOH   0.0000 
329 H1     -19.6177     3.3496    12.8566 H     110 HOH   0.0000 
330 H2     -20.8680     3.9966    13.5037 H     110 HOH   0.0000 
331 O       -7.3439     4.8164    34.3011 O.3   111 HOH   0.0000 
332 H1      -6.3839     4.8164    34.3011 H     111 HOH   0.0000 
333 H2      -7.6341     5.4635    34.9481 H     111 HOH   0.0000 
334 O       -4.0940    33.2088    44.7213 O.3   112 HOH   0.0000 
335 H1      -3.1340    33.2088    44.7213 H     112 HOH   0.0000 
336 H2      -4.3843    33.8559    45.3683 H     112 HOH   0.0000 
337 O      -27.9394    36.4585    33.4400 O.3   113 HOH   0.0000 
338 H1     -26.9794    36.4585    33.4400 H     113 HOH   0.0000 
339 H2     -28.2297    37.1055    34.0871 H     113 HOH   0.0000 
340 O      -35.1945    28.6332    33.8403 O.3   114 HOH   0.0000 
341 H1     -34.2345    28.6332    33.8403 H     114 HOH   0.0000 
342 H2     -35.4848    29.2803    34.4874 H     114 HOH   0.0000 
343 O      -28.4604     5.4815    31.2743 O.3   115 HOH   0.0000 
344 H1     -27.5004     5.4815    31.2743 H     115 HOH   0.0000 
345 H2     -28.7506     6.1285    31.9213 H     115 HOH   0.0000 
346 O      -33.0951    23.9013    49.9646 O.3   116 HOH   0.0000 
347 H1     -32.1351    23.9013    49.9646 H     116 HOH   0.0000 
348 H2     -33.3854    24.5484    50.6117 H     116 HOH   0.0000 
349 O       -9.1861    24.0856    17.2085 O.3   117 HOH   0.0000 
350 H1      -8.2261    24.0856    17.2085 H     117 HOH   0.0000 
351 H2      -9.4764    24.7326    17.8556 H     117 HOH   0.0000 
352 O      -12.4705    11.6350    46.5509 O.3   118 HOH   0.0000 
353 H1     -11.5105    11.6350    46.5509 H     118 HOH   0.0000 
354 H2     -12.7608    12.2821    47.1979 H     118 HOH   0.0000 
355 O        3.8026     9.9561    46.8081 O.3   119 HOH   0.0000 
356 H1       4.7626     9.9561    46.8081 H     119 HOH   0.0000 
357 H2       3.5124    10.6032    47.4551 H     119 HOH   0.0000 
358 O      -16.0423    29.4863    24.9345 O.3   120 HOH   0.0000 
359 H1     -15.0823    29.4863    24.9345 H     120 HOH   0.0000 
360 H2     -16.3326    30.1334    25.5816 H     120 HOH   0.0000 
361 O      -28.2407    24.6221    34.3271 O.3   121 HOH   0.0000 
362 H1     -27.2807    24.6221    34.3271 H     121 HOH   0.0000 
363 H2     -28.5310    25.2692    34.9741 H     121 HOH   0.0000 
364 O      -34.7520    36.7203    55.5305 O.3   122 HOH   0.0000 
365 H1     -33.7920    36.7203    55.5305 H     122 HOH   0.0000 
366 H2     -35.0423    37.3673    56.1776 H     122 HOH   0.0000 
367 O      -24.1339    27.8240    31.8244 O.3   123 HOH   0.0000 
368 H1     -23.1739    27.8240    31.8244 H     123 HOH   0.0000 
369 H2     -24.4242    28.4710    32.4714 H     123 HOH   0.0000 
370 O      -41.4960    48.7011    29.4486 O.3   124 HOH  -0.8340 
371 H1     -40.9964    47.8886    29.5285 H     124 HOH   0.4170 
372 H2     -42.0463    48.5695    28.6765 H     124 HOH   0.4170 
373 O      -31.9564    37.4596    55.8580 O.3   125 HOH   0.0000 
374 H1     -30.9964    37.4596    55.8580 H     125 HOH   0.0000 
375 H2     -32.2467    38.1067    56.5050 H     125 HOH   0.0000 
376 O      -27.9022    43.6859    59.0795 O.3   126 HOH   0.0000 
377 H1     -26.9422    43.6859    59.0795 H     126 HOH   0.0000 
378 H2     -28.1925    44.3330    59.7265 H     126 HOH   0.0000 
379 O       16.8385    31.7836    43.2486 O.3   127 HOH   0.0000 
380 H1      17.7985    31.7836    43.2486 H     127 HOH   0.0000 
381 H2      16.5482    32.4306    43.8957 H     127 HOH   0.0000 
382 O       -2.0677    31.3420    49.0172 O.3   128 HOH   0.0000 
383 H1      -1.1077    31.3420    49.0172 H     128 HOH   0.0000 
384 H2      -2.3580    31.9891    49.6643 H     128 HOH   0.0000 
385 O        8.9965    33.9090    30.2502 O.3   129 HOH   0.0000 
386 H1       9.9565    33.9090    30.2502 H     129 HOH   0.0000 
387 H2       8.7062    34.5561    30.8972 H     129 HOH   0.0000 
388 O       -3.7595    16.1577    15.3287 O.3   130 HOH   0.0000 
389 H1      -2.7995    16.1577    15.3287 H     130 HOH   0.0000 
390 H2      -4.0498    16.8047    15.9757 H     130 HOH   0.0000 
391 O      -27.1190     7.3594    23.3088 O.3   131 HOH   0.0000 
392 H1     -26.1590     7.3594    23.3088 H     131 HOH   0.0000 
393 H2     -27.4093     8.0064    23.9559 H     131 HOH   0.0000 
394 O      -17.8124     1.5441    26.2428 O.3   132 HOH   0.0000 
395 H1     -16.8524     1.5441    26.2428 H     132 HOH   0.0000 
396 H2     -18.1026     2.1912    26.8898 H     132 HOH   0.0000 
397 O      -15.5702     0.1187    25.6320 O.3   133 HOH   0.0000 
398 H1     -14.6102     0.1187    25.6320 H     133 HOH   0.0000 
399 H2     -15.8605     0.7657    26.2790 H     133 HOH   0.0000 
400 O       -6.9361    10.9389    12.4121 O.3   134 HOH   0.0000 
401 H1      -5.9761    10.9389    12.4121 H     134 HOH   0.0000 
402 H2      -7.2264    11.5860    13.0591 H     134 HOH   0.0000 
403 O       -7.7257    25.5822    46.4455 O.3   135 HOH   0.0000 
404 H1      -6.7657    25.5822    46.4455 H     135 HOH   0.0000 
405 H2      -8.0160    26.2292    47.0926 H     135 HOH   0.0000 
406 O      -24.2917    11.1488    41.1943 O.3   136 HOH  -0.8340 
407 H1     -25.1769    10.8602    41.4167 H     136 HOH   0.4170 
408 H2     -23.8826    11.3403    42.0382 H     136 HOH   0.4170 
409 O       -1.7226    35.2184    47.1466 O.3   137 HOH   0.0000 
410 H1      -0.7626    35.2184    47.1466 H     137 HOH   0.0000 
411 H2      -2.0129    35.8655    47.7937 H     137 HOH   0.0000 
412 O       15.2642    22.9143    49.2576 O.3   138 HOH   0.0000 
413 H1      16.2242    22.9143    49.2576 H     138 HOH   0.0000 
414 H2      14.9739    23.5613    49.9046 H     138 HOH   0.0000 
415 O       -4.8068    39.6791    34.9304 O.3   139 HOH   0.0000 
416 H1      -3.8468    39.6791    34.9304 H     139 HOH   0.0000 
417 H2      -5.0971    40.3261    35.5775 H     139 HOH   0.0000 
418 O      -29.5531    22.0662    40.1622 O.3   140 HOH   0.0000 
419 H1     -28.5931    22.0662    40.1622 H     140 HOH   0.0000 
420 H2     -29.8434    22.7133    40.8093 H     140 HOH   0.0000 
421 O        7.1210    37.0505    34.2905 O.3   141 HOH   0.0000 
422 H1       8.0810    37.0505    34.2905 H     141 HOH   0.0000 
423 H2       6.8307    37.6975    34.9375 H     141 HOH   0.0000 
424 O        4.5166    37.0772    34.3725 O.3   142 HOH   0.0000 
425 H1       5.4766    37.0772    34.3725 H     142 HOH   0.0000 
426 H2       4.2263    37.7242    35.0196 H     142 HOH   0.0000 
427 O      -26.3885    43.5480    50.5242 O.3   143 HOH   0.0000 
428 H1     -25.4285    43.5480    50.5242 H     143 HOH   0.0000 
429 H2     -26.6788    44.1950    51.1713 H     143 HOH   0.0000 
430 O      -13.9945    12.5063    10.4727 O.3   144 HOH   0.0000 
431 H1     -13.0345    12.5063    10.4727 H     144 HOH   0.0000 
432 H2     -14.2848    13.1533    11.1198 H     144 HOH   0.0000 
433 O       -2.2046    30.2565    35.4724 O.3   145 HOH   0.0000 
434 H1      -1.2446    30.2565    35.4724 H     145 HOH   0.0000 
435 H2      -2.4948    30.9035    36.1194 H     145 HOH   0.0000 
@<TRIPOS>BOND
  1   1   2  1   
  2   1   3  1   
  3   4   5  1   
  4   4   6  1   
  5   7   8  1   
  6   7   9  1   
  7  10  11  1   
  8  10  12  1   
  9  13  14  1   
 10  13  15  1   
 11  16  17  1   
 12  16  18  1   
 13  19  20  1   
 14  19  21  1   
 15  22  23  1   
 16  22  24  1   
 17  25  26  1   
 18  25  27  1   
 19  28  29  1   
 20  28  30  1   
 21  31  32  1   
 22  31  33  1   
 23  34  35  1   
 24  34  36  1   
 25  37  38  1   
 26  37  39  1   
 27  40  41  1   
 28  40  42  1   
 29  43  44  1   
 30  43  45  1   
 31  46  47  1   
 32  46  48  1   
 33  49  50  1   
 34  49  51  1   
 35  52  53  1   
 36  52  54  1   
 37  55  56  1   
 38  55  57  1   
 39  58  59  1   
 40  58  60  1   
 41  61  62  1   
 42  61  63  1   
 43  64  65  1   
 44  64  66  1   
 45  67  68  1   
 46  67  69  1   
 47  70  71  1   
 48  70  72  1   
 49  73  74  1   
 50  73  75  1   
 51  76  77  1   
 52  76  78  1   
 53  79  80  1   
 54  79  81  1   
 55  82  83  1   
 56  82  84  1   
 57  85  86  1   
 58  85  87  1   
 59  88  89  1   
 60  88  90  1   
 61  91  92  1   
 62  91  93  1   
 63  94  95  1   
 64  94  96  1   
 65  97  98  1   
 66  97  99  1   
 67 100 101  1   
 68 100 102  1   
 69 103 104  1   
 70 103 105  1   
 71 106 107  1   
 72 106 108  1   
 73 109 110  1   
 74 109 111  1   
 75 112 113  1   
 76 112 114  1   
 77 115 116  1   
 78 115 117  1   
 79 118 119  1   
 80 118 120  1   
 81 121 122  1   
 82 121 123  1   
 83 124 125  1   
 84 124 126  1   
 85 127 128  1   
 86 127 129  1   
 87 130 131  1   
 88 130 132  1   
 89 133 134  1   
 90 133 135  1   
 91 136 137  1   
 92 136 138  1   
 93 139 140  1   
 94 139 141  1   
 95 142 143  1   
 96 142 144  1   
 97 145 146  1   
 98 145 147  1   
 99 148 149  1   
100 148 150  1   
101 151 152  1   
102 151 153  1   
103 154 155  1   
104 154 156  1   
105 157 158  1   
106 157 159  1   
107 160 161  1   
108 160 162  1   
109 163 164  1   
110 163 165  1   
111 166 167  1   
112 166 168  1   
113 169 170  1   
114 169 171  1   
115 172 173  1   
116 172 174  1   
117 175 176  1   
118 175 177  1   
119 178 179  1   
120 178 180  1   
121 181 182  1   
122 181 183  1   
123 184 185  1   
124 184 186  1   
125 187 188  1   
126 187 189  1   
127 190 191  1   
128 190 192  1   
129 193 194  1   
130 193 195  1   
131 196 197  1   
132 196 198  1   
133 199 200  1   
134 199 201  1   
135 202 203  1   
136 202 204  1   
137 205 206  1   
138 205 207  1   
139 208 209  1   
140 208 210  1   
141 211 212  1   
142 211 213  1   
143 214 215  1   
144 214 216  1   
145 217 218  1   
146 217 219  1   
147 220 221  1   
148 220 222  1   
149 223 224  1   
150 223 225  1   
151 226 227  1   
152 226 228  1   
153 229 230  1   
154 229 231  1   
155 232 233  1   
156 232 234  1   
157 235 236  1   
158 235 237  1   
159 238 239  1   
160 238 240  1   
161 241 242  1   
162 241 243  1   
163 244 245  1   
164 244 246  1   
165 247 248  1   
166 247 249  1   
167 250 251  1   
168 250 252  1   
169 253 254  1   
170 253 255  1   
171 256 257  1   
172 256 258  1   
173 259 260  1   
174 259 261  1   
175 262 263  1   
176 262 264  1   
177 265 266  1   
178 265 267  1   
179 268 269  1   
180 268 270  1   
181 271 272  1   
182 271 273  1   
183 274 275  1   
184 274 276  1   
185 277 278  1   
186 277 279  1   
187 280 281  1   
188 280 282  1   
189 283 284  1   
190 283 285  1   
191 286 287  1   
192 286 288  1   
193 289 290  1   
194 289 291  1   
195 292 293  1   
196 292 294  1   
197 295 296  1   
198 295 297  1   
199 298 299  1   
200 298 300  1   
201 301 302  1   
202 301 303  1   
203 304 305  1   
204 304 306  1   
205 307 308  1   
206 307 309  1   
207 310 311  1   
208 310 312  1   
209 313 314  1   
210 313 315  1   
211 316 317  1   
212 316 318  1   
213 319 320  1   
214 319 321  1   
215 322 323  1   
216 322 324  1   
217 325 326  1   
218 325 327  1   
219 328 329  1   
220 328 330  1   
221 331 332  1   
222 331 333  1   
223 334 335  1   
224 334 336  1   
225 337 338  1   
226 337 339  1   
227 340 341  1   
228 340 342  1   
229 343 344  1   
230 343 345  1   
231 346 347  1   
232 346 348  1   
233 349 350  1   
234 349 351  1   
235 352 353  1   
236 352 354  1   
237 355 356  1   
238 355 357  1   
239 358 359  1   
240 358 360  1   
241 361 362  1   
242 361 363  1   
243 364 365  1   
244 364 366  1   
245 367 368  1   
246 367 369  1   
247 370 371  1   
248 370 372  1   
249 373 374  1   
250 373 375  1   
251 376 377  1   
252 376 378  1   
253 379 380  1   
254 379 381  1   
255 382 383  1   
256 382 384  1   
257 385 386  1   
258 385 387  1   
259 388 389  1   
260 388 390  1   
261 391 392  1   
262 391 393  1   
263 394 395  1   
264 394 396  1   
265 397 398  1   
266 397 399  1   
267 400 401  1   
268 400 402  1   
269 403 404  1   
270 403 405  1   
271 406 407  1   
272 406 408  1   
273 409 410  1   
274 409 411  1   
275 412 413  1   
276 412 414  1   
277 415 416  1   
278 415 417  1   
279 418 419  1   
280 418 420  1   
281 421 422  1   
282 421 423  1   
283 424 425  1   
284 424 426  1   
285 427 428  1   
286 427 429  1   
287 430 431  1   
288 430 432  1   
289 433 434  1   
290 433 435  1   
@<TRIPOS>SUBSTRUCTURE
  1 HOH   1 GROUP 4 A **** 0
  2 HOH   4 GROUP 4 A **** 0
  3 HOH   7 GROUP 4 A **** 0
  4 HOH  10 GROUP 4 A **** 0
  5 HOH  13 GROUP 4 A **** 0
  6 HOH  16 GROUP 4 A **** 0
  7 HOH  19 GROUP 4 A **** 0
  8 HOH  22 GROUP 4 A **** 0
  9 HOH  25 GROUP 4 A **** 0
 10 HOH  28 GROUP 4 A **** 0
 11 HOH  31 GROUP 4 A **** 0
 12 HOH  34 GROUP 4 A **** 0
 13 HOH  37 GROUP 4 A **** 0
 14 HOH  40 GROUP 4 A **** 0
 15 HOH  43 GROUP 4 A **** 0
 16 HOH  46 GROUP 4 A **** 0
 17 HOH  49 GROUP 4 A **** 0
 18 HOH  52 GROUP 4 A **** 0
 19 HOH  55 GROUP 4 A **** 0
 20 HOH  58 GROUP 4 A **** 0
 21 HOH  61 GROUP 4 A **** 0
 22 HOH  64 GROUP 4 A **** 0
 23 HOH  67 GROUP 4 A **** 0
 24 HOH  70 GROUP 4 A **** 0
 25 HOH  73 GROUP 4 A **** 0
 26 HOH  76 GROUP 4 A **** 0
 27 HOH  79 GROUP 4 A **** 0
 28 HOH  82 GROUP 4 A **** 0
 29 HOH  85 GROUP 4 A **** 0
 30 HOH  88 GROUP 4 A **** 0
 31 HOH  91 GROUP 4 A **** 0
 32 HOH  94 GROUP 4 A **** 0
 33 HOH  97 GROUP 4 A **** 0
 34 HOH 100 GROUP 4 A **** 0
 35 HOH 103 GROUP 4 A **** 0
 36 HOH 106 GROUP 4 A **** 0
 37 HOH 109 GROUP 4 A **** 0
 38 HOH 112 GROUP 4 A **** 0
 39 HOH 115 GROUP 4 A **** 0
 40 HOH 118 GROUP 4 A **** 0
 41 HOH 121 GROUP 4 A **** 0
 42 HOH 124 GROUP 4 A **** 0
 43 HOH 127 GROUP 4 A **** 0
 44 HOH 130 GROUP 4 A **** 0
 45 HOH 133 GROUP 4 A **** 0
 46 HOH 136 GROUP 4 A **** 0
 47 HOH 139 GROUP 4 A **** 0
 48 HOH 142 GROUP 4 A **** 0
 49 HOH 145 GROUP 4 A **** 0
 50 HOH 148 GROUP 4 A **** 0
 51 HOH 151 GROUP 4 A **** 0
 52 HOH 154 GROUP 4 A **** 0
 53 HOH 157 GROUP 4 A **** 0
 54 HOH 160 GROUP 4 A **** 0
 55 HOH 163 GROUP 4 A **** 0
 56 HOH 166 GROUP 4 A **** 0
 57 HOH 169 GROUP 4 A **** 0
 58 HOH 172 GROUP 4 A **** 0
 59 HOH 175 GROUP 4 A **** 0
 60 HOH 178 GROUP 4 A **** 0
 61 HOH 181 GROUP 4 A **** 0
 62 HOH 184 GROUP 4 A **** 0
 63 HOH 187 GROUP 4 A **** 0
 64 HOH 190 GROUP 4 A **** 0
 65 HOH 193 GROUP 4 A **** 0
 66 HOH 196 GROUP 4 A **** 0
 67 HOH 199 GROUP 4 A **** 0
 68 HOH 202 GROUP 4 A **** 0
 69 HOH 205 GROUP 4 A **** 0
 70 HOH 208 GROUP 4 A **** 0
 71 HOH 211 GROUP 4 A **** 0
 72 HOH 214 GROUP 4 A **** 0
 73 HOH 217 GROUP 4 A **** 0
 74 HOH 220 GROUP 4 A **** 0
 75 HOH 223 GROUP 4 A **** 0
 76 HOH 226 GROUP 4 A **** 0
 77 HOH 229 GROUP 4 A **** 0
 78 HOH 232 GROUP 4 A **** 0
 79 HOH 235 GROUP 4 A **** 0
 80 HOH 238 GROUP 4 A **** 0
 81 HOH 241 GROUP 4 A **** 0
 82 HOH 244 GROUP 4 A **** 0
 83 HOH 247 GROUP 4 A **** 0
 84 HOH 250 GROUP 4 A **** 0
 85 HOH 253 GROUP 4 A **** 0
 86 HOH 256 GROUP 4 A **** 0
 87 HOH 259 GROUP 4 A **** 0
 88 HOH 262 GROUP 4 A **** 0
 89 HOH 265 GROUP 4 A **** 0
 90 HOH 268 GROUP 4 A **** 0
 91 HOH 271 GROUP 4 A **** 0
 92 HOH 274 GROUP 4 A **** 0
 93 HOH 277 GROUP 4 A **** 0
 94 HOH 280 GROUP 4 A **** 0
 95 HOH 283 GROUP 4 A **** 0
 96 HOH 286 GROUP 4 A **** 0
 97 HOH 289 GROUP 4 A **** 0
 98 HOH 292 GROUP 4 A **** 0
 99 HOH 295 GROUP 4 A **** 0
100 HOH 298 GROUP 4 A **** 0
101 HOH 301 GROUP 4 A **** 0
102 HOH 304 GROUP 4 A **** 0
103 HOH 307 GROUP 4 A **** 0
104 HOH 310 GROUP 4 A **** 0
105 HOH 313 GROUP 4 A **** 0
106 HOH 316 GROUP 4 A **** 0
107 HOH 319 GROUP 4 A **** 0
108 HOH 322 GROUP 4 A **** 0
109 HOH 325 GROUP 4 A **** 0
110 HOH 328 GROUP 4 A **** 0
111 HOH 331 GROUP 4 A **** 0
112 HOH 334 GROUP 4 A **** 0
113 HOH 337 GROUP 4 A **** 0
114 HOH 340 GROUP 4 A **** 0
115 HOH 343 GROUP 4 A **** 0
116 HOH 346 GROUP 4 A **** 0
117 HOH 349 GROUP 4 A **** 0
118 HOH 352 GROUP 4 A **** 0
119 HOH 355 GROUP 4 A **** 0
120 HOH 358 GROUP 4 A **** 0
121 HOH 361 GROUP 4 A **** 0
122 HOH 364 GROUP 4 A **** 0
123 HOH 367 GROUP 4 A **** 0
124 HOH 370 GROUP 4 A **** 0
125 HOH 373 GROUP 4 A **** 0
126 HOH 376 GROUP 4 A **** 0
127 HOH 379 GROUP 4 A **** 0
128 HOH 382 GROUP 4 A **** 0
129 HOH 385 GROUP 4 A **** 0
130 HOH 388 GROUP 4 A **** 0
131 HOH 391 GROUP 4 A **** 0
132 HOH 394 GROUP 4 A **** 0
133 HOH 397 GROUP 4 A **** 0
134 HOH 400 GROUP 4 A **** 0
135 HOH 403 GROUP 4 A **** 0
136 HOH 406 GROUP 4 A **** 0
137 HOH 409 GROUP 4 A **** 0
138 HOH 412 GROUP 4 A **** 0
139 HOH 415 GROUP 4 A **** 0
140 HOH 418 GROUP 4 A **** 0
141 HOH 421 GROUP 4 A **** 0
142 HOH 424 GROUP 4 A **** 0
143 HOH 427 GROUP 4 A **** 0
144 HOH 430 GROUP 4 A **** 0
145 HOH 433 GROUP 4 A **** 0

# MOE 2012.10 (io_trps.svl 2012.10)
