@<TRIPOS>MOLECULE
3cs9.B
61 65 1 0 0 
SMALL
USER_CHARGES


@<TRIPOS>ATOM
  1 O17      1.0324    22.9120    35.2584 O.2   1 NIL  -0.5700 
  2 C16      2.2127    23.2266    35.1733 C.2   1 NIL   0.5438 
  3 N14      2.7330    23.7906    34.0530 N.am  1 NIL  -0.5470 
  4 H14      3.6777    24.1452    34.0961 H     1 NIL   0.3700 
  5 C11      2.0375    23.9116    32.8361 C.ar  1 NIL   0.1170 
  6 C9       2.7471    24.1121    31.6513 C.ar  1 NIL  -0.1500 
  7 H9       3.8257    24.1539    31.6865 H     1 NIL   0.1500 
  8 C8       2.0990    24.2609    30.4152 C.ar  1 NIL  -0.0230 
  9 N51      2.8513    24.3910    29.2170 N.pl3 1 NIL   0.3262 
 10 C56      4.1103    24.9617    29.0511 C.2   1 NIL  -0.3016 
 11 H56      4.7116    25.4031    29.8321 H     1 NIL   0.1500 
 12 C55      4.4566    24.8684    27.7299 C.2   1 NIL   0.0462 
 13 C58      5.7723    25.3574    27.1334 C.3   1 NIL  -0.0590 
 14 H581     6.3847    25.8008    27.9186 H     1 NIL   0.0800 
 15 H582     5.5681    26.1045    26.3664 H     1 NIL   0.0800 
 16 H583     6.3045    24.5164    26.6888 H     1 NIL   0.0800 
 17 N54      3.4305    24.2504    27.0295 N.2   1 NIL  -0.5653 
 18 C52      2.5083    23.9877    27.9596 C.2   1 NIL   0.0365 
 19 H52      1.5720    23.4984    27.7355 H     1 NIL   0.1500 
 20 C6       0.6896    24.2760    30.4179 C.ar  1 NIL  -0.1500 
 21 H6       0.1699    24.3967    29.4789 H     1 NIL   0.1500 
 22 C12      0.6168    23.9751    32.7886 C.ar  1 NIL  -0.1500 
 23 H12      0.0568    23.8923    33.7084 H     1 NIL   0.1500 
 24 C5      -0.0673    24.1398    31.5983 C.ar  1 NIL  -0.1435 
 25 C2      -1.6071    24.1787    31.5791 C.3   1 NIL   1.1635 
 26 F4      -2.1652    24.8887    32.6260 F     1 NIL  -0.3400 
 27 F3      -2.0641    24.8515    30.4732 F     1 NIL  -0.3400 
 28 F1      -2.1684    22.9512    31.5971 F     1 NIL  -0.3400 
 29 C18      3.0082    23.2953    36.4482 C.ar  1 NIL   0.0862 
 30 C25      4.2789    23.9038    36.5180 C.ar  1 NIL  -0.1500 
 31 H25      4.7430    24.2367    35.6014 H     1 NIL   0.1500 
 32 C23      4.9695    24.0963    37.7318 C.ar  1 NIL  -0.1500 
 33 H23      5.9708    24.5009    37.7195 H     1 NIL   0.1500 
 34 C22      4.3675    23.7670    38.9562 C.ar  1 NIL  -0.1435 
 35 C27      5.1496    24.0067    40.2551 C.3   1 NIL  -0.0965 
 36 H271     6.1323    24.4142    40.0175 H     1 NIL   0.0800 
 37 H272     5.2667    23.0631    40.7881 H     1 NIL   0.0800 
 38 H273     4.6052    24.7129    40.8819 H     1 NIL   0.0800 
 39 C21      3.0430    23.2367    38.9419 C.ar  1 NIL   0.1000 
 40 C19      2.3902    23.0155    37.6951 C.ar  1 NIL  -0.1500 
 41 H19      1.3855    22.6194    37.6987 H     1 NIL   0.1500 
 42 N31      2.5097    22.6934    40.1323 N.pl3 1 NIL  -0.6000 
 43 H31      2.0995    23.2795    40.8452 H     1 NIL   0.4000 
 44 C33      2.5786    21.2901    40.2757 C.ar  1 NIL   0.7200 
 45 N40      3.1643    20.3937    39.4900 N.ar  1 NIL  -0.6200 
 46 C38      3.0258    19.0774    39.8016 C.ar  1 NIL   0.1600 
 47 H38      3.5012    18.3383    39.1737 H     1 NIL   0.1500 
 48 C36      2.3182    18.6688    40.8632 C.ar  1 NIL  -0.1500 
 49 H36      2.2268    17.6198    41.1034 H     1 NIL   0.1500 
 50 C35      1.7209    19.6169    41.6252 C.ar  1 NIL   0.3100 
 51 N34      1.8673    20.9110    41.3465 N.ar  1 NIL  -0.6200 
 52 C41      0.9590    19.3206    42.8560 C.ar  1 NIL   0.0000 
 53 C49      0.8788    17.9944    43.3442 C.ar  1 NIL  -0.1500 
 54 H49      1.3371    17.1821    42.7997 H     1 NIL   0.1500 
 55 C47      0.2020    17.7516    44.5346 C.ar  1 NIL  -0.1500 
 56 H47      0.1157    16.7476    44.9232 H     1 NIL   0.1500 
 57 C45     -0.3658    18.8333    45.2203 C.ar  1 NIL   0.1600 
 58 H45     -0.8920    18.6407    46.1435 H     1 NIL   0.1500 
 59 N44     -0.2835    20.1094    44.7761 N.ar  1 NIL  -0.6200 
 60 C42      0.3694    20.3488    43.6153 C.ar  1 NIL   0.1600 
 61 H42      0.4408    21.3656    43.2584 H     1 NIL   0.1500 
@<TRIPOS>BOND
  1   1   2  2   
  2   2   3  am  
  3   2  29  1   
  4   3   4  1   
  5   3   5  1   
  6   5   6  ar  
  7   5  22  ar  
  8   6   7  1   
  9   6   8  ar  
 10   8   9  1   
 11   8  20  ar  
 12   9  10  1   
 13   9  18  1   
 14  10  11  1   
 15  10  12  2   
 16  12  13  1   
 17  12  17  1   
 18  13  14  1   
 19  13  15  1   
 20  13  16  1   
 21  17  18  2   
 22  18  19  1   
 23  20  21  1   
 24  20  24  ar  
 25  22  23  1   
 26  22  24  ar  
 27  24  25  1   
 28  25  26  1   
 29  25  27  1   
 30  25  28  1   
 31  29  30  ar  
 32  29  40  ar  
 33  30  31  1   
 34  30  32  ar  
 35  32  33  1   
 36  32  34  ar  
 37  34  35  1   
 38  34  39  ar  
 39  35  36  1   
 40  35  37  1   
 41  35  38  1   
 42  39  40  ar  
 43  39  42  1   
 44  40  41  1   
 45  42  43  1   
 46  42  44  1   
 47  44  45  ar  
 48  44  51  ar  
 49  45  46  ar  
 50  46  47  1   
 51  46  48  ar  
 52  48  49  1   
 53  48  50  ar  
 54  50  51  ar  
 55  50  52  1   
 56  52  53  ar  
 57  52  60  ar  
 58  53  54  1   
 59  53  55  ar  
 60  55  56  1   
 61  55  57  ar  
 62  57  58  1   
 63  57  59  ar  
 64  59  60  ar  
 65  60  61  1   
@<TRIPOS>SUBSTRUCTURE
  1 NIL   2 GROUP 4 B **** 0

# MOE 2012.10 (io_trps.svl 2012.10)
