@<TRIPOS>MOLECULE
2hyy.B
69 73 1 0 0 
SMALL
USER_CHARGES


@<TRIPOS>ATOM
  1 C1       0.1810    18.1484    44.0521 C.ar  1 STI  -0.1500 
  2 H1       0.0260    17.1890    44.5232 H     1 STI   0.1500 
  3 C6       0.9854    18.2962    42.8817 C.ar  1 STI  -0.1500 
  4 H6       1.4615    17.4371    42.4326 H     1 STI   0.1500 
  5 C5       1.1500    19.5824    42.3192 C.ar  1 STI   0.0000 
  6 C4       0.5208    20.6947    42.9264 C.ar  1 STI   0.1600 
  7 H4       0.6669    21.6711    42.4886 H     1 STI   0.1500 
  8 N3      -0.2694    20.5905    44.0499 N.ar  1 STI  -0.6200 
  9 C2      -0.4017    19.3368    44.5581 C.ar  1 STI   0.1600 
 10 H2      -1.0158    19.2358    45.4408 H     1 STI   0.1500 
 11 C7       2.0062    19.8034    41.0773 C.ar  1 STI   0.3100 
 12 C12      2.7831    18.8623    40.5118 C.ar  1 STI  -0.1500 
 13 H12      2.8361    17.8662    40.9258 H     1 STI   0.1500 
 14 C11      3.5171    19.2043    39.3796 C.ar  1 STI   0.1600 
 15 H11      4.1579    18.4707    38.9131 H     1 STI   0.1500 
 16 N10      3.4353    20.4057    38.8791 N.ar  1 STI  -0.6200 
 17 C9       2.6612    21.3231    39.4926 C.ar  1 STI   0.7200 
 18 N8       1.9704    21.0535    40.6040 N.ar  1 STI  -0.6200 
 19 N13      2.4759    22.6448    39.0812 N.pl3 1 STI  -0.6000 
 20 H13      1.8480    23.2601    39.5784 H     1 STI   0.4000 
 21 C14      3.1791    23.0890    37.9698 C.ar  1 STI   0.1000 
 22 C19      4.4402    23.6732    38.1242 C.ar  1 STI  -0.1435 
 23 C18      5.0749    24.1739    36.9911 C.ar  1 STI  -0.1500 
 24 H18      6.0425    24.6361    37.1197 H     1 STI   0.1500 
 25 C17      4.5416    24.1193    35.6863 C.ar  1 STI  -0.1500 
 26 H17      5.1031    24.4712    34.8334 H     1 STI   0.1500 
 27 C16      3.2518    23.5889    35.5436 C.ar  1 STI   0.1170 
 28 C15      2.5704    23.0729    36.6735 C.ar  1 STI  -0.1500 
 29 H15      1.5786    22.6619    36.5557 H     1 STI   0.1500 
 30 N21      2.7772    23.6486    34.2141 N.am  1 STI  -0.5470 
 31 H21      3.4288    23.8358    33.4655 H     1 STI   0.3700 
 32 C22      1.4951    23.4643    33.9267 C.2   1 STI   0.5438 
 33 C23      1.0357    23.9480    32.6332 C.ar  1 STI   0.0862 
 34 C25     -0.3686    24.0406    32.3861 C.ar  1 STI  -0.1500 
 35 H25     -1.0797    23.8172    33.1678 H     1 STI   0.1500 
 36 C26     -0.8176    24.4350    31.0834 C.ar  1 STI  -0.1500 
 37 H26     -1.8764    24.4733    30.8741 H     1 STI   0.1500 
 38 C27      0.1063    24.7748    30.0682 C.ar  1 STI  -0.1435 
 39 C28      1.4773    24.6634    30.3299 C.ar  1 STI  -0.1500 
 40 H28      2.1859    24.9017    29.5504 H     1 STI   0.1500 
 41 C29      1.9626    24.2369    31.6198 C.ar  1 STI  -0.1500 
 42 H29      3.0227    24.1414    31.8028 H     1 STI   0.1500 
 43 C46     -0.4307    25.1776    28.7350 C.3   1 STI   0.2535 
 44 H461    -0.3486    26.2600    28.6359 H     1 STI   0.0800 
 45 H462    -1.4793    24.8858    28.6761 H     1 STI   0.0800 
 46 N48      0.2897    24.5529    27.6435 N.3   1 STI  -0.8100 
 47 C53      0.2835    23.0982    27.7366 C.3   1 STI   0.1100 
 48 H531    -0.7516    22.7571    27.7585 H     1 STI   0.0800 
 49 H532     0.7811    22.8084    28.6621 H     1 STI   0.0800 
 50 C52      1.0288    22.3831    26.5131 C.3   1 STI   0.3430 
 51 H521     0.7669    21.3257    26.4767 H     1 STI   0.0800 
 52 H522     2.1090    22.4865    26.6157 H     1 STI   0.0800 
 53 N51      0.5560    23.0780    25.2745 N.4   1 STI  -0.9590 
 54 H51     -0.4397    22.9151    25.2282 H     1 STI   0.4500 
 55 C54      1.3115    22.5361    24.1465 C.3   1 STI   0.2630 
 56 H541     1.2004    21.4521    24.1220 H     1 STI   0.0800 
 57 H542     2.3654    22.7908    24.2591 H     1 STI   0.0800 
 58 H543     0.9323    22.9613    23.2172 H     1 STI   0.0800 
 59 C50      0.7375    24.5043    25.2582 C.3   1 STI   0.3430 
 60 H501     0.4599    24.9009    24.2816 H     1 STI   0.0800 
 61 H502     1.7798    24.7464    25.4658 H     1 STI   0.0800 
 62 C49     -0.1608    25.1107    26.3384 C.3   1 STI   0.1100 
 63 H491    -0.0620    26.1962    26.3413 H     1 STI   0.0800 
 64 H492    -1.2008    24.8410    26.1551 H     1 STI   0.0800 
 65 O29      0.6890    22.8483    34.5930 O.2   1 STI  -0.5700 
 66 C20      5.1593    23.7361    39.4767 C.3   1 STI  -0.0965 
 67 H201     4.5217    23.3034    40.2477 H     1 STI   0.0800 
 68 H202     5.3758    24.7751    39.7252 H     1 STI   0.0800 
 69 H203     6.0917    23.1745    39.4190 H     1 STI   0.0800 
@<TRIPOS>BOND
  1   1   2  1   
  2   1   3  ar  
  3   1   9  ar  
  4   3   4  1   
  5   3   5  ar  
  6   5   6  ar  
  7   5  11  1   
  8   6   7  1   
  9   6   8  ar  
 10   8   9  ar  
 11   9  10  1   
 12  11  12  ar  
 13  11  18  ar  
 14  12  13  1   
 15  12  14  ar  
 16  14  15  1   
 17  14  16  ar  
 18  16  17  ar  
 19  17  18  ar  
 20  17  19  1   
 21  19  20  1   
 22  19  21  1   
 23  21  22  ar  
 24  21  28  ar  
 25  22  23  ar  
 26  22  66  1   
 27  23  24  1   
 28  23  25  ar  
 29  25  26  1   
 30  25  27  ar  
 31  27  28  ar  
 32  27  30  1   
 33  28  29  1   
 34  30  31  1   
 35  30  32  am  
 36  32  33  1   
 37  32  65  2   
 38  33  34  ar  
 39  33  41  ar  
 40  34  35  1   
 41  34  36  ar  
 42  36  37  1   
 43  36  38  ar  
 44  38  39  ar  
 45  38  43  1   
 46  39  40  1   
 47  39  41  ar  
 48  41  42  1   
 49  43  44  1   
 50  43  45  1   
 51  43  46  1   
 52  46  47  1   
 53  46  62  1   
 54  47  48  1   
 55  47  49  1   
 56  47  50  1   
 57  50  51  1   
 58  50  52  1   
 59  50  53  1   
 60  53  54  1   
 61  53  55  1   
 62  53  59  1   
 63  55  56  1   
 64  55  57  1   
 65  55  58  1   
 66  59  60  1   
 67  59  61  1   
 68  59  62  1   
 69  62  63  1   
 70  62  64  1   
 71  66  67  1   
 72  66  68  1   
 73  66  69  1   
@<TRIPOS>SUBSTRUCTURE
  1 STI  65 GROUP 4 B **** 0

# MOE 2012.10 (io_trps.svl 2012.10)
