@<TRIPOS>MOLECULE
2hyy.B
135 90 45 0 0 
SMALL
USER_CHARGES


@<TRIPOS>ATOM
  1 O      -11.2438     2.6017    40.9725 O.3    1 HOH   0.0000 
  2 H1     -10.2838     2.6017    40.9725 H      1 HOH   0.0000 
  3 H2     -11.5341     3.2487    41.6196 H      1 HOH   0.0000 
  4 O      -12.1366     4.6362    46.7146 O.3    2 HOH   0.0000 
  5 H1     -11.1766     4.6362    46.7146 H      2 HOH   0.0000 
  6 H2     -12.4269     5.2832    47.3616 H      2 HOH   0.0000 
  7 O        0.5343     4.1582    25.3076 O.3    3 HOH   0.0000 
  8 H1       1.4943     4.1582    25.3076 H      3 HOH   0.0000 
  9 H2       0.2441     4.8053    25.9546 H      3 HOH   0.0000 
 10 O       -4.2944    17.3206    21.4770 O.3    4 HOH   0.0000 
 11 H1      -3.3344    17.3206    21.4770 H      4 HOH   0.0000 
 12 H2      -4.5846    17.9676    22.1240 H      4 HOH   0.0000 
 13 O      -12.9703     4.7000    44.1900 O.3    5 HOH   0.0000 
 14 H1     -12.0103     4.7000    44.1900 H      5 HOH   0.0000 
 15 H2     -13.2606     5.3471    44.8370 H      5 HOH   0.0000 
 16 O       -5.0102    16.1621    24.8756 O.3    6 HOH   0.0000 
 17 H1      -4.0502    16.1621    24.8756 H      6 HOH   0.0000 
 18 H2      -5.3005    16.8092    25.5227 H      6 HOH   0.0000 
 19 O       -3.4594    12.6727    27.0279 O.3    7 HOH   0.0000 
 20 H1      -2.4994    12.6727    27.0279 H      7 HOH   0.0000 
 21 H2      -3.7497    13.3197    27.6749 H      7 HOH   0.0000 
 22 O        1.1288    18.8003    26.4721 O.3    8 HOH  -0.8340 
 23 H1       1.1512    19.1588    27.3593 H      8 HOH   0.4170 
 24 H2       0.4781    19.3327    26.0145 H      8 HOH   0.4170 
 25 O      -10.1433     2.4743    43.6924 O.3    9 HOH   0.0000 
 26 H1      -9.1833     2.4743    43.6924 H      9 HOH   0.0000 
 27 H2     -10.4336     3.1213    44.3394 H      9 HOH   0.0000 
 28 O       -8.5027     6.6746    22.6004 O.3   10 HOH   0.0000 
 29 H1      -7.5427     6.6746    22.6004 H     10 HOH   0.0000 
 30 H2      -8.7930     7.3217    23.2474 H     10 HOH   0.0000 
 31 O       -5.8511    24.0218    47.4013 O.3   11 HOH   0.0000 
 32 H1      -4.8911    24.0218    47.4013 H     11 HOH   0.0000 
 33 H2      -6.1414    24.6688    48.0484 H     11 HOH   0.0000 
 34 O       -4.9862     9.7548    33.5966 O.3   12 HOH   0.0000 
 35 H1      -4.0262     9.7548    33.5966 H     12 HOH   0.0000 
 36 H2      -5.2765    10.4018    34.2436 H     12 HOH   0.0000 
 37 O       -2.9132     7.9054    33.4828 O.3   13 HOH   0.0000 
 38 H1      -1.9532     7.9054    33.4828 H     13 HOH   0.0000 
 39 H2      -3.2034     8.5525    34.1299 H     13 HOH   0.0000 
 40 O        5.0830    21.2693    33.8896 O.3   14 HOH  -0.8340 
 41 H1       5.1184    22.1000    33.4154 H     14 HOH   0.4170 
 42 H2       4.2198    20.9113    33.6825 H     14 HOH   0.4170 
 43 O      -13.0400    11.6952    49.0822 O.3   15 HOH   0.0000 
 44 H1     -12.0800    11.6952    49.0822 H     15 HOH   0.0000 
 45 H2     -13.3303    12.3422    49.7293 H     15 HOH   0.0000 
 46 O       -6.3817     6.3428    20.9518 O.3   16 HOH   0.0000 
 47 H1      -5.4217     6.3428    20.9518 H     16 HOH   0.0000 
 48 H2      -6.6719     6.9898    21.5988 H     16 HOH   0.0000 
 49 O      -12.3682    -1.6258    25.8388 O.3   17 HOH   0.0000 
 50 H1     -11.4082    -1.6258    25.8388 H     17 HOH   0.0000 
 51 H2     -12.6585    -0.9787    26.4858 H     17 HOH   0.0000 
 52 O       -6.8574    29.1084    39.1819 O.3   18 HOH   0.0000 
 53 H1      -5.8974    29.1084    39.1819 H     18 HOH   0.0000 
 54 H2      -7.1477    29.7555    39.8289 H     18 HOH   0.0000 
 55 O      -17.7970    -0.9336    23.2833 O.3   19 HOH   0.0000 
 56 H1     -16.8370    -0.9336    23.2833 H     19 HOH   0.0000 
 57 H2     -18.0873    -0.2865    23.9303 H     19 HOH   0.0000 
 58 O      -23.9559    22.1487    23.5162 O.3   20 HOH   0.0000 
 59 H1     -22.9959    22.1487    23.5162 H     20 HOH   0.0000 
 60 H2     -24.2462    22.7957    24.1633 H     20 HOH   0.0000 
 61 O      -27.4034    19.7605    28.6609 O.3   21 HOH   0.0000 
 62 H1     -26.4434    19.7605    28.6609 H     21 HOH   0.0000 
 63 H2     -27.6937    20.4076    29.3079 H     21 HOH   0.0000 
 64 O      -15.2253    24.0041    43.9153 O.3   22 HOH   0.0000 
 65 H1     -14.2653    24.0041    43.9153 H     22 HOH   0.0000 
 66 H2     -15.5156    24.6511    44.5624 H     22 HOH   0.0000 
 67 O      -18.7866    19.7367    15.4975 O.3   23 HOH   0.0000 
 68 H1     -17.8266    19.7367    15.4975 H     23 HOH   0.0000 
 69 H2     -19.0769    20.3837    16.1445 H     23 HOH   0.0000 
 70 O        5.0798    20.4943    36.4589 O.3   24 HOH  -0.8340 
 71 H1       4.3680    20.9367    36.9214 H     24 HOH   0.4170 
 72 H2       5.1322    20.9421    35.6145 H     24 HOH   0.4170 
 73 O       -2.3202     3.9363    31.7566 O.3   25 HOH   0.0000 
 74 H1      -1.3602     3.9363    31.7566 H     25 HOH   0.0000 
 75 H2      -2.6105     4.5834    32.4036 H     25 HOH   0.0000 
 76 O       -1.1793     7.5419    35.2614 O.3   26 HOH   0.0000 
 77 H1      -0.2193     7.5419    35.2614 H     26 HOH   0.0000 
 78 H2      -1.4695     8.1890    35.9084 H     26 HOH   0.0000 
 79 O        9.3557     4.7407    16.5818 O.3   27 HOH   0.0000 
 80 H1      10.3157     4.7407    16.5818 H     27 HOH   0.0000 
 81 H2       9.0654     5.3877    17.2288 H     27 HOH   0.0000 
 82 O       -6.8994     6.1016    33.8356 O.3   28 HOH   0.0000 
 83 H1      -5.9394     6.1016    33.8356 H     28 HOH   0.0000 
 84 H2      -7.1897     6.7487    34.4827 H     28 HOH   0.0000 
 85 O       -6.9026     9.0659    11.0463 O.3   29 HOH   0.0000 
 86 H1      -5.9426     9.0659    11.0463 H     29 HOH   0.0000 
 87 H2      -7.1929     9.7129    11.6933 H     29 HOH   0.0000 
 88 O        0.8149    -4.8853    21.1868 O.3   30 HOH   0.0000 
 89 H1       1.7749    -4.8853    21.1868 H     30 HOH   0.0000 
 90 H2       0.5247    -4.2383    21.8338 H     30 HOH   0.0000 
 91 O       -1.9744     4.9515    26.6127 O.3   31 HOH   0.0000 
 92 H1      -1.0144     4.9515    26.6127 H     31 HOH   0.0000 
 93 H2      -2.2646     5.5986    27.2597 H     31 HOH   0.0000 
 94 O        5.0889    22.2501    53.4299 O.3   32 HOH   0.0000 
 95 H1       6.0489    22.2501    53.4299 H     32 HOH   0.0000 
 96 H2       4.7986    22.8972    54.0769 H     32 HOH   0.0000 
 97 O      -12.0890    18.2209    47.5988 O.3   33 HOH   0.0000 
 98 H1     -11.1290    18.2209    47.5988 H     33 HOH   0.0000 
 99 H2     -12.3793    18.8679    48.2458 H     33 HOH   0.0000 
100 O        4.5177     5.6633    30.9010 O.3   34 HOH   0.0000 
101 H1       5.4777     5.6633    30.9010 H     34 HOH   0.0000 
102 H2       4.2274     6.3103    31.5480 H     34 HOH   0.0000 
103 O       -6.3491    23.7246    17.0363 O.3   35 HOH   0.0000 
104 H1      -5.3891    23.7246    17.0363 H     35 HOH   0.0000 
105 H2      -6.6393    24.3716    17.6833 H     35 HOH   0.0000 
106 O       -4.9601    30.0679    36.2103 O.3   36 HOH   0.0000 
107 H1      -4.0001    30.0679    36.2103 H     36 HOH   0.0000 
108 H2      -5.2504    30.7150    36.8573 H     36 HOH   0.0000 
109 O       -5.9377     2.2013     7.8121 O.3   37 HOH   0.0000 
110 H1      -4.9777     2.2013     7.8121 H     37 HOH   0.0000 
111 H2      -6.2280     2.8484     8.4591 H     37 HOH   0.0000 
112 O       -5.0493     0.7287    29.3255 O.3   38 HOH   0.0000 
113 H1      -4.0893     0.7287    29.3255 H     38 HOH   0.0000 
114 H2      -5.3395     1.3758    29.9726 H     38 HOH   0.0000 
115 O        9.5801    22.5953    30.6686 O.3   39 HOH   0.0000 
116 H1      10.5401    22.5953    30.6686 H     39 HOH   0.0000 
117 H2       9.2899    23.2424    31.3157 H     39 HOH   0.0000 
118 O      -25.7397     4.1747    50.0660 O.3   40 HOH   0.0000 
119 H1     -24.7797     4.1747    50.0660 H     40 HOH   0.0000 
120 H2     -26.0300     4.8217    50.7131 H     40 HOH   0.0000 
121 O        1.9742    15.7781    30.1667 O.3   41 HOH   0.0000 
122 H1       2.9342    15.7781    30.1667 H     41 HOH   0.0000 
123 H2       1.6839    16.4252    30.8137 H     41 HOH   0.0000 
124 O      -22.2063    19.8085    19.4664 O.3   42 HOH   0.0000 
125 H1     -21.2463    19.8085    19.4664 H     42 HOH   0.0000 
126 H2     -22.4966    20.4556    20.1135 H     42 HOH   0.0000 
127 O      -17.8887     7.7204    19.2179 O.3   43 HOH   0.0000 
128 H1     -16.9287     7.7204    19.2179 H     43 HOH   0.0000 
129 H2     -18.1789     8.3675    19.8649 H     43 HOH   0.0000 
130 O       10.2117    37.4497    45.6071 O.3   44 HOH   0.0000 
131 H1      11.1717    37.4497    45.6071 H     44 HOH   0.0000 
132 H2       9.9214    38.0968    46.2542 H     44 HOH   0.0000 
133 O       -6.0837     4.9351     8.5680 O.3   45 HOH   0.0000 
134 H1      -5.1237     4.9351     8.5680 H     45 HOH   0.0000 
135 H2      -6.3740     5.5821     9.2150 H     45 HOH   0.0000 
@<TRIPOS>BOND
  1   1   2  1   
  2   1   3  1   
  3   4   5  1   
  4   4   6  1   
  5   7   8  1   
  6   7   9  1   
  7  10  11  1   
  8  10  12  1   
  9  13  14  1   
 10  13  15  1   
 11  16  17  1   
 12  16  18  1   
 13  19  20  1   
 14  19  21  1   
 15  22  23  1   
 16  22  24  1   
 17  25  26  1   
 18  25  27  1   
 19  28  29  1   
 20  28  30  1   
 21  31  32  1   
 22  31  33  1   
 23  34  35  1   
 24  34  36  1   
 25  37  38  1   
 26  37  39  1   
 27  40  41  1   
 28  40  42  1   
 29  43  44  1   
 30  43  45  1   
 31  46  47  1   
 32  46  48  1   
 33  49  50  1   
 34  49  51  1   
 35  52  53  1   
 36  52  54  1   
 37  55  56  1   
 38  55  57  1   
 39  58  59  1   
 40  58  60  1   
 41  61  62  1   
 42  61  63  1   
 43  64  65  1   
 44  64  66  1   
 45  67  68  1   
 46  67  69  1   
 47  70  71  1   
 48  70  72  1   
 49  73  74  1   
 50  73  75  1   
 51  76  77  1   
 52  76  78  1   
 53  79  80  1   
 54  79  81  1   
 55  82  83  1   
 56  82  84  1   
 57  85  86  1   
 58  85  87  1   
 59  88  89  1   
 60  88  90  1   
 61  91  92  1   
 62  91  93  1   
 63  94  95  1   
 64  94  96  1   
 65  97  98  1   
 66  97  99  1   
 67 100 101  1   
 68 100 102  1   
 69 103 104  1   
 70 103 105  1   
 71 106 107  1   
 72 106 108  1   
 73 109 110  1   
 74 109 111  1   
 75 112 113  1   
 76 112 114  1   
 77 115 116  1   
 78 115 117  1   
 79 118 119  1   
 80 118 120  1   
 81 121 122  1   
 82 121 123  1   
 83 124 125  1   
 84 124 126  1   
 85 127 128  1   
 86 127 129  1   
 87 130 131  1   
 88 130 132  1   
 89 133 134  1   
 90 133 135  1   
@<TRIPOS>SUBSTRUCTURE
  1 HOH   1 GROUP 4 B **** 0
  2 HOH   4 GROUP 4 B **** 0
  3 HOH   7 GROUP 4 B **** 0
  4 HOH  10 GROUP 4 B **** 0
  5 HOH  13 GROUP 4 B **** 0
  6 HOH  16 GROUP 4 B **** 0
  7 HOH  19 GROUP 4 B **** 0
  8 HOH  22 GROUP 4 B **** 0
  9 HOH  25 GROUP 4 B **** 0
 10 HOH  28 GROUP 4 B **** 0
 11 HOH  31 GROUP 4 B **** 0
 12 HOH  34 GROUP 4 B **** 0
 13 HOH  37 GROUP 4 B **** 0
 14 HOH  40 GROUP 4 B **** 0
 15 HOH  43 GROUP 4 B **** 0
 16 HOH  46 GROUP 4 B **** 0
 17 HOH  49 GROUP 4 B **** 0
 18 HOH  52 GROUP 4 B **** 0
 19 HOH  55 GROUP 4 B **** 0
 20 HOH  58 GROUP 4 B **** 0
 21 HOH  61 GROUP 4 B **** 0
 22 HOH  64 GROUP 4 B **** 0
 23 HOH  67 GROUP 4 B **** 0
 24 HOH  70 GROUP 4 B **** 0
 25 HOH  73 GROUP 4 B **** 0
 26 HOH  76 GROUP 4 B **** 0
 27 HOH  79 GROUP 4 B **** 0
 28 HOH  82 GROUP 4 B **** 0
 29 HOH  85 GROUP 4 B **** 0
 30 HOH  88 GROUP 4 B **** 0
 31 HOH  91 GROUP 4 B **** 0
 32 HOH  94 GROUP 4 B **** 0
 33 HOH  97 GROUP 4 B **** 0
 34 HOH 100 GROUP 4 B **** 0
 35 HOH 103 GROUP 4 B **** 0
 36 HOH 106 GROUP 4 B **** 0
 37 HOH 109 GROUP 4 B **** 0
 38 HOH 112 GROUP 4 B **** 0
 39 HOH 115 GROUP 4 B **** 0
 40 HOH 118 GROUP 4 B **** 0
 41 HOH 121 GROUP 4 B **** 0
 42 HOH 124 GROUP 4 B **** 0
 43 HOH 127 GROUP 4 B **** 0
 44 HOH 130 GROUP 4 B **** 0
 45 HOH 133 GROUP 4 B **** 0

# MOE 2012.10 (io_trps.svl 2012.10)
