@<TRIPOS>MOLECULE
3qri.A
69 73 1 0 0 
SMALL
USER_CHARGES


@<TRIPOS>ATOM
  1 C1       3.2849    23.5427    30.5913 C.ar  1 Q919  -0.0230 
  2 C2       3.9723    24.2863    29.6265 C.ar  1 Q919  -0.1500 
  3 H2       3.5107    25.1861    29.2475 H     1 Q919   0.1500 
  4 C3       5.2198    23.9251    29.1311 C.ar  1 Q919  -0.1500 
  5 H3       5.6738    24.5040    28.3405 H     1 Q919   0.1500 
  6 C4       5.8833    22.8217    29.6505 C.ar  1 Q919   0.3100 
  7 C5       5.2034    22.0012    30.5334 C.ar  1 Q919   0.0000 
  8 C6       3.9448    22.3887    31.0253 C.ar  1 Q919  -0.1500 
  9 H6       3.4672    21.7688    31.7697 H     1 Q919   0.1500 
 10 C9       7.6331    21.2640    29.4675 C.ar  1 Q919   0.1600 
 11 H9       8.4628    20.8706    28.8989 H     1 Q919   0.1500 
 12 N10      7.0752    22.4424    29.1361 N.ar  1 Q919  -0.6200 
 13 C13      5.8326    20.8454    30.9954 C.ar  1 Q919  -0.1500 
 14 H13      5.3266    20.1831    31.6823 H     1 Q919   0.1500 
 15 C14      7.1226    20.5581    30.5577 C.ar  1 Q919  -0.1500 
 16 H14      7.7166    19.8037    31.0522 H     1 Q919   0.1500 
 17 C22     -0.1574    21.9321    42.5782 C.ar  1 Q919   0.1600 
 18 H22     -0.9253    22.6849    42.6789 H     1 Q919   0.1500 
 19 N23     -0.1869    20.8429    43.3629 N.ar  1 Q919  -0.6200 
 20 C24      0.7323    19.8684    43.2520 C.ar  1 Q919   0.3962 
 21 C25      1.7692    20.0025    42.3284 C.ar  1 Q919  -0.1500 
 22 H25      2.5271    19.2372    42.2491 H     1 Q919   0.1500 
 23 C26      1.8229    21.1235    41.5121 C.ar  1 Q919   0.0825 
 24 C27      0.8518    22.1000    41.6377 C.ar  1 Q919  -0.1500 
 25 H27      0.8773    22.9809    41.0135 H     1 Q919   0.1500 
 26 C34      1.9215    21.8956    37.1212 C.ar  1 Q919  -0.1500 
 27 H34      1.1361    21.6442    36.4238 H     1 Q919   0.1500 
 28 C35      1.8594    21.4376    38.4377 C.ar  1 Q919  -0.1500 
 29 H35      1.0125    20.8475    38.7555 H     1 Q919   0.1500 
 30 C36      2.8688    21.7282    39.3458 C.ar  1 Q919   0.0825 
 31 C37      3.9580    22.4853    38.9282 C.ar  1 Q919  -0.1500 
 32 H37      4.7573    22.7101    39.6188 H     1 Q919   0.1500 
 33 C38      4.0158    22.9510    37.6239 C.ar  1 Q919   0.1900 
 34 C39      3.0020    22.6808    36.7053 C.ar  1 Q919   0.1170 
 35 C46     -0.0081    24.2477    30.8278 C.2   1 Q919   0.1078 
 36 C47      0.2285    24.0473    32.1737 C.2   1 Q919  -0.1500 
 37 H47     -0.5029    23.9699    32.9645 H     1 Q919   0.1500 
 38 C48      1.6085    23.9670    32.2905 C.2   1 Q919  -0.0876 
 39 N49      2.0858    23.9845    31.0241 N.pl3 1 Q919   0.5926 
 40 N50      1.0887    24.1744    30.0709 N.2   1 Q919  -0.7068 
 41 N56      2.4848    23.7373    33.3165 N.am  1 Q919  -0.4940 
 42 H56      3.4685    23.8826    33.1395 H     1 Q919   0.3700 
 43 C58      2.1183    23.3290    34.5496 C.2   1 Q919   0.6900 
 44 N60      3.1243    23.1174    35.4161 N.am  1 Q919  -0.5470 
 45 H60      4.0601    23.2985    35.0822 H     1 Q919   0.3700 
 46 O63      0.9408    23.1669    34.8686 O.2   1 Q919  -0.5700 
 47 O65      2.8644    21.2498    40.6313 O.3   1 Q919  -0.1650 
 48 F68      5.0756    23.6803    37.2792 F     1 Q919  -0.1900 
 49 C70      0.6418    18.6593    44.1544 C.2   1 Q919   0.5438 
 50 O72      1.3959    17.7176    43.9672 O.2   1 Q919  -0.5700 
 51 N74     -0.2518    18.6548    45.1385 N.am  1 Q919  -0.7301 
 52 H74     -0.9794    19.3552    45.1504 H     1 Q919   0.3700 
 53 C76     -0.2015    17.6638    46.1947 C.3   1 Q919   0.0601 
 54 H761     0.6406    16.9932    46.0239 H     1 Q919   0.0800 
 55 H762    -1.1281    17.0897    46.1987 H     1 Q919   0.0800 
 56 H763    -0.0793    18.1631    47.1559 H     1 Q919   0.0800 
 57 C79     -1.3807    24.1919    30.2089 C.3   1 Q919   0.1810 
 58 C81     -1.8621    25.6374    30.1241 C.3   1 Q919  -0.2400 
 59 H811    -1.9291    26.0574    31.1277 H     1 Q919   0.0800 
 60 H812    -2.8440    25.6663    29.6518 H     1 Q919   0.0800 
 61 H813    -1.1569    26.2211    29.5324 H     1 Q919   0.0800 
 62 C83     -2.3463    23.3579    31.0587 C.3   1 Q919  -0.2400 
 63 H831    -2.4100    23.7840    32.0599 H     1 Q919   0.0800 
 64 H832    -1.9815    22.3328    31.1227 H     1 Q919   0.0800 
 65 H833    -3.3340    23.3639    30.5978 H     1 Q919   0.0800 
 66 C85     -1.2859    23.6012    28.8042 C.3   1 Q919  -0.2400 
 67 H851    -0.5984    24.1979    28.2047 H     1 Q919   0.0800 
 68 H852    -2.2721    23.6075    28.3400 H     1 Q919   0.0800 
 69 H853    -0.9195    22.5764    28.8649 H     1 Q919   0.0800 
@<TRIPOS>BOND
  1   1   2  ar  
  2   1   8  ar  
  3   1  39  1   
  4   2   3  1   
  5   2   4  ar  
  6   4   5  1   
  7   4   6  ar  
  8   6   7  ar  
  9   6  12  ar  
 10   7   8  ar  
 11   7  13  ar  
 12   8   9  1   
 13  10  11  1   
 14  10  12  ar  
 15  10  15  ar  
 16  13  14  1   
 17  13  15  ar  
 18  15  16  1   
 19  17  18  1   
 20  17  19  ar  
 21  17  24  ar  
 22  19  20  ar  
 23  20  21  ar  
 24  20  49  1   
 25  21  22  1   
 26  21  23  ar  
 27  23  24  ar  
 28  23  47  1   
 29  24  25  1   
 30  26  27  1   
 31  26  28  ar  
 32  26  34  ar  
 33  28  29  1   
 34  28  30  ar  
 35  30  31  ar  
 36  30  47  1   
 37  31  32  1   
 38  31  33  ar  
 39  33  34  ar  
 40  33  48  1   
 41  34  44  1   
 42  35  36  1   
 43  35  40  2   
 44  35  57  1   
 45  36  37  1   
 46  36  38  2   
 47  38  39  1   
 48  38  41  1   
 49  39  40  1   
 50  41  42  1   
 51  41  43  am  
 52  43  44  am  
 53  43  46  2   
 54  44  45  1   
 55  49  50  2   
 56  49  51  am  
 57  51  52  1   
 58  51  53  1   
 59  53  54  1   
 60  53  55  1   
 61  53  56  1   
 62  57  58  1   
 63  57  62  1   
 64  57  66  1   
 65  58  59  1   
 66  58  60  1   
 67  58  61  1   
 68  62  63  1   
 69  62  64  1   
 70  62  65  1   
 71  66  67  1   
 72  66  68  1   
 73  66  69  1   
@<TRIPOS>SUBSTRUCTURE
  1 Q919  44 GROUP 4 A **** 0

# MOE 2012.10 (io_trps.svl 2012.10)
