@<TRIPOS>MOLECULE
3qri.A
621 414 207 0 0 
SMALL
USER_CHARGES


@<TRIPOS>ATOM
  1 O       -2.2661     4.9140    26.7666 O.3     1 HOH   0.0000 
  2 H1      -1.3061     4.9140    26.7666 H       1 HOH   0.0000 
  3 H2      -2.5564     5.5611    27.4136 H       1 HOH   0.0000 
  4 O       -4.4458    17.2593    21.3573 O.3     2 HOH   0.0000 
  5 H1      -3.4858    17.2593    21.3573 H       2 HOH   0.0000 
  6 H2      -4.7361    17.9064    22.0043 H       2 HOH   0.0000 
  7 O       -3.6480    12.4712    27.0220 O.3     3 HOH   0.0000 
  8 H1      -2.6880    12.4712    27.0220 H       3 HOH   0.0000 
  9 H2      -3.9383    13.1182    27.6691 H       3 HOH   0.0000 
 10 O       -5.4877    23.4067    47.6735 O.3     4 HOH   0.0000 
 11 H1      -4.5277    23.4067    47.6735 H       4 HOH   0.0000 
 12 H2      -5.7780    24.0538    48.3205 H       4 HOH   0.0000 
 13 O       -6.9822     6.3883    20.9151 O.3     5 HOH   0.0000 
 14 H1      -6.0222     6.3883    20.9151 H       5 HOH   0.0000 
 15 H2      -7.2725     7.0353    21.5621 H       5 HOH   0.0000 
 16 O       -9.1621     7.1301    22.9781 O.3     6 HOH   0.0000 
 17 H1      -8.2021     7.1301    22.9781 H       6 HOH   0.0000 
 18 H2      -9.4523     7.7772    23.6251 H       6 HOH   0.0000 
 19 O      -17.6332    11.7986    12.4045 O.3     7 HOH   0.0000 
 20 H1     -16.6732    11.7986    12.4045 H       7 HOH   0.0000 
 21 H2     -17.9235    12.4456    13.0515 H       7 HOH   0.0000 
 22 O      -14.9774    17.4716     7.8365 O.3     8 HOH   0.0000 
 23 H1     -14.0174    17.4716     7.8365 H       8 HOH   0.0000 
 24 H2     -15.2677    18.1186     8.4835 H       8 HOH   0.0000 
 25 O      -10.3045    28.5420    41.4479 O.3     9 HOH   0.0000 
 26 H1      -9.3445    28.5420    41.4479 H       9 HOH   0.0000 
 27 H2     -10.5948    29.1890    42.0949 H       9 HOH   0.0000 
 28 O       -6.5151    35.2020    30.2053 O.3    10 HOH   0.0000 
 29 H1      -5.5551    35.2020    30.2053 H      10 HOH   0.0000 
 30 H2      -6.8053    35.8490    30.8523 H      10 HOH   0.0000 
 31 O      -13.7115     5.1700    23.1229 O.3    11 HOH   0.0000 
 32 H1     -12.7515     5.1700    23.1229 H      11 HOH   0.0000 
 33 H2     -14.0018     5.8170    23.7699 H      11 HOH   0.0000 
 34 O       -3.9470    -0.7076    15.9733 O.3    12 HOH   0.0000 
 35 H1      -2.9870    -0.7076    15.9733 H      12 HOH   0.0000 
 36 H2      -4.2373    -0.0605    16.6204 H      12 HOH   0.0000 
 37 O        1.9647    15.9018    30.3677 O.3    13 HOH   0.0000 
 38 H1       2.9247    15.9018    30.3677 H      13 HOH   0.0000 
 39 H2       1.6744    16.5488    31.0148 H      13 HOH   0.0000 
 40 O      -11.4127    18.2223    47.5494 O.3    14 HOH   0.0000 
 41 H1     -10.4527    18.2223    47.5494 H      14 HOH   0.0000 
 42 H2     -11.7030    18.8693    48.1965 H      14 HOH   0.0000 
 43 O       -4.2791    14.6968    22.5779 O.3    15 HOH   0.0000 
 44 H1      -3.3191    14.6968    22.5779 H      15 HOH   0.0000 
 45 H2      -4.5693    15.3438    23.2250 H      15 HOH   0.0000 
 46 O       12.4567    42.1061    40.2031 O.3    16 HOH   0.0000 
 47 H1      13.4167    42.1061    40.2031 H      16 HOH   0.0000 
 48 H2      12.1665    42.7532    40.8502 H      16 HOH   0.0000 
 49 O       -7.0302    23.4809    16.3508 O.3    17 HOH   0.0000 
 50 H1      -6.0702    23.4809    16.3508 H      17 HOH   0.0000 
 51 H2      -7.3205    24.1280    16.9978 H      17 HOH   0.0000 
 52 O        6.6931    17.9658    35.8979 O.3    18 HOH  -0.8340 
 53 H1       6.8631    17.1533    36.3745 H      18 HOH   0.4170 
 54 H2       6.3045    17.6819    35.0704 H      18 HOH   0.4170 
 55 O        4.9195    21.0438    34.6025 O.3    19 HOH  -0.8340 
 56 H1       5.1673    21.9523    34.4309 H      19 HOH   0.4170 
 57 H2       4.1584    20.8927    34.0421 H      19 HOH   0.4170 
 58 O      -14.3769    28.6692    23.5658 O.3    20 HOH   0.0000 
 59 H1     -13.4169    28.6692    23.5658 H      20 HOH   0.0000 
 60 H2     -14.6672    29.3162    24.2129 H      20 HOH   0.0000 
 61 O        8.2473    38.2486    33.5893 O.3    21 HOH   0.0000 
 62 H1       9.2073    38.2486    33.5893 H      21 HOH   0.0000 
 63 H2       7.9570    38.8956    34.2364 H      21 HOH   0.0000 
 64 O       -5.0197    16.3907    25.0361 O.3    22 HOH   0.0000 
 65 H1      -4.0597    16.3907    25.0361 H      22 HOH   0.0000 
 66 H2      -5.3100    17.0378    25.6832 H      22 HOH   0.0000 
 67 O       -5.6944    10.5691    47.2600 O.3    23 HOH   0.0000 
 68 H1      -4.7344    10.5691    47.2600 H      23 HOH   0.0000 
 69 H2      -5.9847    11.2162    47.9071 H      23 HOH   0.0000 
 70 O       -6.4524    13.3266    21.8158 O.3    24 HOH   0.0000 
 71 H1      -5.4924    13.3266    21.8158 H      24 HOH   0.0000 
 72 H2      -6.7426    13.9737    22.4629 H      24 HOH   0.0000 
 73 O        1.6438    22.5568    27.8266 O.3    25 HOH  -0.8340 
 74 H1       1.4766    23.2074    28.5085 H      25 HOH   0.4170 
 75 H2       1.6664    21.7210    28.2927 H      25 HOH   0.4170 
 76 O      -23.0180     1.3175    26.1602 O.3    26 HOH   0.0000 
 77 H1     -22.0580     1.3175    26.1602 H      26 HOH   0.0000 
 78 H2     -23.3083     1.9646    26.8072 H      26 HOH   0.0000 
 79 O       -8.2105     0.0134    35.6819 O.3    27 HOH   0.0000 
 80 H1      -7.2505     0.0134    35.6819 H      27 HOH   0.0000 
 81 H2      -8.5008     0.6604    36.3290 H      27 HOH   0.0000 
 82 O      -13.8421    30.6305    21.7977 O.3    28 HOH   0.0000 
 83 H1     -12.8821    30.6305    21.7977 H      28 HOH   0.0000 
 84 H2     -14.1324    31.2776    22.4447 H      28 HOH   0.0000 
 85 O      -16.2033     4.5189    48.7230 O.3    29 HOH   0.0000 
 86 H1     -15.2433     4.5189    48.7230 H      29 HOH   0.0000 
 87 H2     -16.4936     5.1659    49.3700 H      29 HOH   0.0000 
 88 O       -9.3901    22.2201    16.0731 O.3    30 HOH   0.0000 
 89 H1      -8.4301    22.2201    16.0731 H      30 HOH   0.0000 
 90 H2      -9.6804    22.8671    16.7202 H      30 HOH   0.0000 
 91 O      -20.6272     1.0989    15.9274 O.3    31 HOH   0.0000 
 92 H1     -19.6672     1.0989    15.9274 H      31 HOH   0.0000 
 93 H2     -20.9175     1.7459    16.5745 H      31 HOH   0.0000 
 94 O      -15.6832    22.5542    27.5546 O.3    32 HOH   0.0000 
 95 H1     -14.7232    22.5542    27.5546 H      32 HOH   0.0000 
 96 H2     -15.9734    23.2013    28.2017 H      32 HOH   0.0000 
 97 O       -1.8420    22.4401    15.5880 O.3    33 HOH   0.0000 
 98 H1      -0.8820    22.4401    15.5880 H      33 HOH   0.0000 
 99 H2      -2.1323    23.0871    16.2350 H      33 HOH   0.0000 
100 O        7.4288    13.4653    41.3178 O.3    34 HOH   0.0000 
101 H1       8.3888    13.4653    41.3178 H      34 HOH   0.0000 
102 H2       7.1385    14.1123    41.9648 H      34 HOH   0.0000 
103 O       -2.2831     3.1751    28.7471 O.3    35 HOH   0.0000 
104 H1      -1.3231     3.1751    28.7471 H      35 HOH   0.0000 
105 H2      -2.5733     3.8221    29.3941 H      35 HOH   0.0000 
106 O       -7.0137     6.0704    33.6574 O.3    36 HOH   0.0000 
107 H1      -6.0537     6.0704    33.6574 H      36 HOH   0.0000 
108 H2      -7.3040     6.7175    34.3045 H      36 HOH   0.0000 
109 O       -4.9112     9.6768    33.6594 O.3    37 HOH   0.0000 
110 H1      -3.9512     9.6768    33.6594 H      37 HOH   0.0000 
111 H2      -5.2014    10.3239    34.3064 H      37 HOH   0.0000 
112 O      -26.9515     4.0278    26.8508 O.3    38 HOH   0.0000 
113 H1     -25.9915     4.0278    26.8508 H      38 HOH   0.0000 
114 H2     -27.2418     4.6748    27.4978 H      38 HOH   0.0000 
115 O        2.8959    15.0113    26.5268 O.3    39 HOH   0.0000 
116 H1       3.8559    15.0113    26.5268 H      39 HOH   0.0000 
117 H2       2.6056    15.6584    27.1739 H      39 HOH   0.0000 
118 O      -14.5414    25.9997    39.7361 O.3    40 HOH   0.0000 
119 H1     -13.5814    25.9997    39.7361 H      40 HOH   0.0000 
120 H2     -14.8317    26.6467    40.3831 H      40 HOH   0.0000 
121 O      -14.2730    29.2274    30.9856 O.3    41 HOH   0.0000 
122 H1     -13.3130    29.2274    30.9856 H      41 HOH   0.0000 
123 H2     -14.5632    29.8745    31.6327 H      41 HOH   0.0000 
124 O       -6.6322    26.2137    16.4888 O.3    42 HOH   0.0000 
125 H1      -5.6722    26.2137    16.4888 H      42 HOH   0.0000 
126 H2      -6.9224    26.8607    17.1359 H      42 HOH   0.0000 
127 O        4.4527     5.0993    29.8706 O.3    43 HOH   0.0000 
128 H1       5.4127     5.0993    29.8706 H      43 HOH   0.0000 
129 H2       4.1624     5.7464    30.5176 H      43 HOH   0.0000 
130 O       -3.6057     3.4146    31.6904 O.3    44 HOH   0.0000 
131 H1      -2.6457     3.4146    31.6904 H      44 HOH   0.0000 
132 H2      -3.8960     4.0617    32.3375 H      44 HOH   0.0000 
133 O        8.3456    12.8591    25.7035 O.3    45 HOH   0.0000 
134 H1       9.3056    12.8591    25.7035 H      45 HOH   0.0000 
135 H2       8.0553    13.5061    26.3505 H      45 HOH   0.0000 
136 O      -24.0833    22.1030    23.3553 O.3    46 HOH   0.0000 
137 H1     -23.1233    22.1030    23.3553 H      46 HOH   0.0000 
138 H2     -24.3736    22.7501    24.0023 H      46 HOH   0.0000 
139 O       13.3174    54.4551    37.4579 O.3    47 HOH   0.0000 
140 H1      14.2774    54.4551    37.4579 H      47 HOH   0.0000 
141 H2      13.0271    55.1022    38.1050 H      47 HOH   0.0000 
142 O      -16.6047    22.8165    15.1942 O.3    48 HOH   0.0000 
143 H1     -15.6447    22.8165    15.1942 H      48 HOH   0.0000 
144 H2     -16.8950    23.4636    15.8412 H      48 HOH   0.0000 
145 O       10.4602    17.8570    36.5184 O.3    49 HOH   0.0000 
146 H1      11.4202    17.8570    36.5184 H      49 HOH   0.0000 
147 H2      10.1699    18.5040    37.1655 H      49 HOH   0.0000 
148 O       -0.6421    30.2716    35.5477 O.3    50 HOH   0.0000 
149 H1       0.3179    30.2716    35.5477 H      50 HOH   0.0000 
150 H2      -0.9324    30.9186    36.1948 H      50 HOH   0.0000 
151 O        2.1995    12.9979    24.8860 O.3    51 HOH   0.0000 
152 H1       3.1595    12.9979    24.8860 H      51 HOH   0.0000 
153 H2       1.9093    13.6449    25.5331 H      51 HOH   0.0000 
154 O       14.3015    27.8696    48.8672 O.3    52 HOH   0.0000 
155 H1      15.2615    27.8696    48.8672 H      52 HOH   0.0000 
156 H2      14.0112    28.5166    49.5143 H      52 HOH   0.0000 
157 O       -7.1083    17.0178    15.0678 O.3    53 HOH   0.0000 
158 H1      -6.1483    17.0178    15.0678 H      53 HOH   0.0000 
159 H2      -7.3985    17.6648    15.7148 H      53 HOH   0.0000 
160 O       20.4955    43.0588    38.9730 O.3    54 HOH   0.0000 
161 H1      21.4555    43.0588    38.9730 H      54 HOH   0.0000 
162 H2      20.2052    43.7058    39.6200 H      54 HOH   0.0000 
163 O        5.3796    15.8393    25.2651 O.3    55 HOH   0.0000 
164 H1       6.3396    15.8393    25.2651 H      55 HOH   0.0000 
165 H2       5.0893    16.4864    25.9122 H      55 HOH   0.0000 
166 O       11.3421    35.0089    54.9404 O.3    56 HOH   0.0000 
167 H1      12.3021    35.0089    54.9404 H      56 HOH   0.0000 
168 H2      11.0518    35.6560    55.5874 H      56 HOH   0.0000 
169 O       -3.8983    38.0830    26.7703 O.3    57 HOH   0.0000 
170 H1      -2.9383    38.0830    26.7703 H      57 HOH   0.0000 
171 H2      -4.1886    38.7300    27.4173 H      57 HOH   0.0000 
172 O        0.1708    13.9285    23.2830 O.3    58 HOH   0.0000 
173 H1       1.1308    13.9285    23.2830 H      58 HOH   0.0000 
174 H2      -0.1195    14.5755    23.9300 H      58 HOH   0.0000 
175 O       -0.8301    33.5796    35.0924 O.3    59 HOH   0.0000 
176 H1       0.1299    33.5796    35.0924 H      59 HOH   0.0000 
177 H2      -1.1204    34.2266    35.7395 H      59 HOH   0.0000 
178 O      -13.2452    23.7873    18.8689 O.3    60 HOH   0.0000 
179 H1     -12.2852    23.7873    18.8689 H      60 HOH   0.0000 
180 H2     -13.5355    24.4343    19.5159 H      60 HOH   0.0000 
181 O      -16.6601    28.2210    31.1381 O.3    61 HOH   0.0000 
182 H1     -15.7001    28.2210    31.1381 H      61 HOH   0.0000 
183 H2     -16.9504    28.8681    31.7851 H      61 HOH   0.0000 
184 O       -4.3667    12.5421    44.3268 O.3    62 HOH   0.0000 
185 H1      -3.4067    12.5421    44.3268 H      62 HOH   0.0000 
186 H2      -4.6570    13.1891    44.9738 H      62 HOH   0.0000 
187 O      -19.9212    19.6761    13.3809 O.3    63 HOH   0.0000 
188 H1     -18.9612    19.6761    13.3809 H      63 HOH   0.0000 
189 H2     -20.2115    20.3232    14.0279 H      63 HOH   0.0000 
190 O      -19.4990    15.8313    49.4374 O.3    64 HOH   0.0000 
191 H1     -18.5390    15.8313    49.4374 H      64 HOH   0.0000 
192 H2     -19.7893    16.4783    50.0845 H      64 HOH   0.0000 
193 O        3.9696    11.6463    23.8929 O.3    65 HOH   0.0000 
194 H1       4.9296    11.6463    23.8929 H      65 HOH   0.0000 
195 H2       3.6793    12.2933    24.5399 H      65 HOH   0.0000 
196 O       -3.6034    31.3835    55.4686 O.3    66 HOH   0.0000 
197 H1      -2.6434    31.3835    55.4686 H      66 HOH   0.0000 
198 H2      -3.8937    32.0306    56.1156 H      66 HOH   0.0000 
199 O       10.7109    32.7016    31.1390 O.3    67 HOH   0.0000 
200 H1      11.6709    32.7016    31.1390 H      67 HOH   0.0000 
201 H2      10.4207    33.3487    31.7860 H      67 HOH   0.0000 
202 O      -14.9534    26.0475    17.7772 O.3    68 HOH   0.0000 
203 H1     -13.9934    26.0475    17.7772 H      68 HOH   0.0000 
204 H2     -15.2437    26.6945    18.4243 H      68 HOH   0.0000 
205 O       -9.7750    11.0634    12.5736 O.3    69 HOH   0.0000 
206 H1      -8.8150    11.0634    12.5736 H      69 HOH   0.0000 
207 H2     -10.0653    11.7104    13.2206 H      69 HOH   0.0000 
208 O       15.4873    35.3335    44.5829 O.3    70 HOH   0.0000 
209 H1      16.4473    35.3335    44.5829 H      70 HOH   0.0000 
210 H2      15.1970    35.9806    45.2299 H      70 HOH   0.0000 
211 O        2.1977    22.5735    23.2638 O.3    71 HOH   0.0000 
212 H1       3.1577    22.5735    23.2638 H      71 HOH   0.0000 
213 H2       1.9074    23.2205    23.9109 H      71 HOH   0.0000 
214 O        8.8220    34.8795    30.5901 O.3    72 HOH   0.0000 
215 H1       9.7820    34.8795    30.5901 H      72 HOH   0.0000 
216 H2       8.5317    35.5266    31.2372 H      72 HOH   0.0000 
217 O        7.2131    43.1596    35.0437 O.3    73 HOH   0.0000 
218 H1       8.1731    43.1596    35.0437 H      73 HOH   0.0000 
219 H2       6.9228    43.8066    35.6908 H      73 HOH   0.0000 
220 O      -23.1660     8.5629    43.7719 O.3    74 HOH   0.0000 
221 H1     -22.2060     8.5629    43.7719 H      74 HOH   0.0000 
222 H2     -23.4563     9.2099    44.4190 H      74 HOH   0.0000 
223 O      -18.5899    26.6395    19.3076 O.3    75 HOH   0.0000 
224 H1     -17.6299    26.6395    19.3076 H      75 HOH   0.0000 
225 H2     -18.8802    27.2866    19.9547 H      75 HOH   0.0000 
226 O      -15.3138    27.7169    19.8502 O.3    76 HOH   0.0000 
227 H1     -14.3538    27.7169    19.8502 H      76 HOH   0.0000 
228 H2     -15.6041    28.3639    20.4972 H      76 HOH   0.0000 
229 O      -10.3529     8.6500     7.5918 O.3    77 HOH   0.0000 
230 H1      -9.3929     8.6500     7.5918 H      77 HOH   0.0000 
231 H2     -10.6432     9.2970     8.2389 H      77 HOH   0.0000 
232 O        3.1317    10.1076    11.0671 O.3    78 HOH   0.0000 
233 H1       4.0917    10.1076    11.0671 H      78 HOH   0.0000 
234 H2       2.8414    10.7546    11.7141 H      78 HOH   0.0000 
235 O      -11.9248    19.7571    51.4079 O.3    79 HOH   0.0000 
236 H1     -10.9648    19.7571    51.4079 H      79 HOH   0.0000 
237 H2     -12.2151    20.4041    52.0550 H      79 HOH   0.0000 
238 O       12.8470    35.9502    52.2624 O.3    80 HOH   0.0000 
239 H1      13.8070    35.9502    52.2624 H      80 HOH   0.0000 
240 H2      12.5568    36.5973    52.9094 H      80 HOH   0.0000 
241 O       -1.4615    27.7943    47.0489 O.3    81 HOH   0.0000 
242 H1      -0.5015    27.7943    47.0489 H      81 HOH   0.0000 
243 H2      -1.7518    28.4414    47.6960 H      81 HOH   0.0000 
244 O        0.2528    -3.0074    22.6271 O.3    82 HOH   0.0000 
245 H1       1.2128    -3.0074    22.6271 H      82 HOH   0.0000 
246 H2      -0.0375    -2.3603    23.2741 H      82 HOH   0.0000 
247 O      -25.5261     1.8491    34.3262 O.3    83 HOH   0.0000 
248 H1     -24.5661     1.8491    34.3262 H      83 HOH   0.0000 
249 H2     -25.8164     2.4961    34.9733 H      83 HOH   0.0000 
250 O       -4.2977     5.2889    43.2682 O.3    84 HOH   0.0000 
251 H1      -3.3377     5.2889    43.2682 H      84 HOH   0.0000 
252 H2      -4.5880     5.9359    43.9153 H      84 HOH   0.0000 
253 O       10.7957    49.7830    36.9932 O.3    85 HOH   0.0000 
254 H1      11.7557    49.7830    36.9932 H      85 HOH   0.0000 
255 H2      10.5055    50.4300    37.6402 H      85 HOH   0.0000 
256 O       16.0758    34.0217    40.4609 O.3    86 HOH   0.0000 
257 H1      17.0358    34.0217    40.4609 H      86 HOH   0.0000 
258 H2      15.7856    34.6688    41.1079 H      86 HOH   0.0000 
259 O        6.1951     2.5396    16.0168 O.3    87 HOH   0.0000 
260 H1       7.1551     2.5396    16.0168 H      87 HOH   0.0000 
261 H2       5.9048     3.1866    16.6639 H      87 HOH   0.0000 
262 O       -2.7758    31.5670    20.4551 O.3    88 HOH   0.0000 
263 H1      -1.8158    31.5670    20.4551 H      88 HOH   0.0000 
264 H2      -3.0661    32.2141    21.1022 H      88 HOH   0.0000 
265 O       -8.0760    36.7575    29.1456 O.3    89 HOH   0.0000 
266 H1      -7.1160    36.7575    29.1456 H      89 HOH   0.0000 
267 H2      -8.3662    37.4046    29.7926 H      89 HOH   0.0000 
268 O        0.0474    21.0675    13.8388 O.3    90 HOH   0.0000 
269 H1       1.0074    21.0675    13.8388 H      90 HOH   0.0000 
270 H2      -0.2428    21.7145    14.4858 H      90 HOH   0.0000 
271 O      -11.3449    24.1148    16.7609 O.3    91 HOH   0.0000 
272 H1     -10.3849    24.1148    16.7609 H      91 HOH   0.0000 
273 H2     -11.6352    24.7619    17.4080 H      91 HOH   0.0000 
274 O        4.2121    20.7711    21.3022 O.3    92 HOH   0.0000 
275 H1       5.1721    20.7711    21.3022 H      92 HOH   0.0000 
276 H2       3.9219    21.4182    21.9492 H      92 HOH   0.0000 
277 O       12.2069    16.1070    34.7729 O.3    93 HOH   0.0000 
278 H1      13.1669    16.1070    34.7729 H      93 HOH   0.0000 
279 H2      11.9166    16.7541    35.4200 H      93 HOH   0.0000 
280 O       12.7995    14.1005    36.4222 O.3    94 HOH   0.0000 
281 H1      13.7595    14.1005    36.4222 H      94 HOH   0.0000 
282 H2      12.5092    14.7476    37.0692 H      94 HOH   0.0000 
283 O       -6.0582    -7.0480    31.0248 O.3    95 HOH   0.0000 
284 H1      -5.0982    -7.0480    31.0248 H      95 HOH   0.0000 
285 H2      -6.3485    -6.4010    31.6718 H      95 HOH   0.0000 
286 O        8.9232    48.8569    35.1733 O.3    96 HOH   0.0000 
287 H1       9.8832    48.8569    35.1733 H      96 HOH   0.0000 
288 H2       8.6329    49.5039    35.8203 H      96 HOH   0.0000 
289 O       -8.6152     6.6706     7.2036 O.3    97 HOH   0.0000 
290 H1      -7.6552     6.6706     7.2036 H      97 HOH   0.0000 
291 H2      -8.9055     7.3176     7.8506 H      97 HOH   0.0000 
292 O       -8.0974     9.9327    10.9588 O.3    98 HOH   0.0000 
293 H1      -7.1374     9.9327    10.9588 H      98 HOH   0.0000 
294 H2      -8.3877    10.5797    11.6058 H      98 HOH   0.0000 
295 O       -2.6182    29.9761    46.5593 O.3    99 HOH   0.0000 
296 H1      -1.6582    29.9761    46.5593 H      99 HOH   0.0000 
297 H2      -2.9085    30.6232    47.2063 H      99 HOH   0.0000 
298 O        8.7806    24.2462    21.7982 O.3   100 HOH   0.0000 
299 H1       9.7406    24.2462    21.7982 H     100 HOH   0.0000 
300 H2       8.4904    24.8933    22.4452 H     100 HOH   0.0000 
301 O       -1.1910     9.2761    37.8498 O.3   101 HOH   0.0000 
302 H1      -0.2310     9.2761    37.8498 H     101 HOH   0.0000 
303 H2      -1.4813     9.9232    38.4968 H     101 HOH   0.0000 
304 O        7.3255    23.7387    23.7167 O.3   102 HOH  -0.8340 
305 H1       6.5564    23.5904    24.2669 H     102 HOH   0.4170 
306 H2       7.9440    23.0573    23.9800 H     102 HOH   0.4170 
307 O       -3.9671    33.7403    19.8178 O.3   103 HOH   0.0000 
308 H1      -3.0071    33.7403    19.8178 H     103 HOH   0.0000 
309 H2      -4.2574    34.3874    20.4648 H     103 HOH   0.0000 
310 O       11.4194    16.1275    32.2002 O.3   104 HOH  -0.8340 
311 H1      10.5900    16.0606    31.7270 H     104 HOH   0.4170 
312 H2      11.4847    17.0517    32.4405 H     104 HOH   0.4170 
313 O      -18.4786     7.9411    19.2790 O.3   105 HOH   0.0000 
314 H1     -17.5186     7.9411    19.2790 H     105 HOH   0.0000 
315 H2     -18.7688     8.5882    19.9260 H     105 HOH   0.0000 
316 O       10.6079     7.0144    25.0097 O.3   106 HOH   0.0000 
317 H1      11.5679     7.0144    25.0097 H     106 HOH   0.0000 
318 H2      10.3177     7.6614    25.6567 H     106 HOH   0.0000 
319 O        4.2660    18.7411    28.3880 O.3   107 HOH  -0.8340 
320 H1       3.3813    18.6711    28.7468 H     107 HOH   0.4170 
321 H2       4.2506    19.5437    27.8666 H     107 HOH   0.4170 
322 O      -13.5559    -1.0016    26.3674 O.3   108 HOH   0.0000 
323 H1     -12.5959    -1.0016    26.3674 H     108 HOH   0.0000 
324 H2     -13.8461    -0.3546    27.0144 H     108 HOH   0.0000 
325 O        7.1480     1.5311    24.3473 O.3   109 HOH   0.0000 
326 H1       8.1080     1.5311    24.3473 H     109 HOH   0.0000 
327 H2       6.8577     2.1782    24.9944 H     109 HOH   0.0000 
328 O        3.2102     1.1619    15.1948 O.3   110 HOH   0.0000 
329 H1       4.1702     1.1619    15.1948 H     110 HOH   0.0000 
330 H2       2.9199     1.8089    15.8418 H     110 HOH   0.0000 
331 O       -2.7367     7.6236    48.7000 O.3   111 HOH   0.0000 
332 H1      -1.7767     7.6236    48.7000 H     111 HOH   0.0000 
333 H2      -3.0270     8.2706    49.3470 H     111 HOH   0.0000 
334 O       -2.0290    35.8251    33.5250 O.3   112 HOH   0.0000 
335 H1      -1.0690    35.8251    33.5250 H     112 HOH   0.0000 
336 H2      -2.3193    36.4721    34.1720 H     112 HOH   0.0000 
337 O       -8.7205    10.1920    47.1218 O.3   113 HOH   0.0000 
338 H1      -7.7605    10.1920    47.1218 H     113 HOH   0.0000 
339 H2      -9.0108    10.8390    47.7689 H     113 HOH   0.0000 
340 O      -16.1542    33.4588    24.0040 O.3   114 HOH   0.0000 
341 H1     -15.1942    33.4588    24.0040 H     114 HOH   0.0000 
342 H2     -16.4445    34.1058    24.6510 H     114 HOH   0.0000 
343 O       -4.0991    12.9825    24.3339 O.3   115 HOH   0.0000 
344 H1      -3.1391    12.9825    24.3339 H     115 HOH   0.0000 
345 H2      -4.3894    13.6296    24.9809 H     115 HOH   0.0000 
346 O       -3.1236     7.7880    33.1579 O.3   116 HOH   0.0000 
347 H1      -2.1636     7.7880    33.1579 H     116 HOH   0.0000 
348 H2      -3.4139     8.4351    33.8050 H     116 HOH   0.0000 
349 O       -7.7472    35.7886    32.3586 O.3   117 HOH   0.0000 
350 H1      -6.7872    35.7886    32.3586 H     117 HOH   0.0000 
351 H2      -8.0375    36.4356    33.0056 H     117 HOH   0.0000 
352 O        0.3760    19.3283    15.7315 O.3   118 HOH   0.0000 
353 H1       1.3360    19.3283    15.7315 H     118 HOH   0.0000 
354 H2       0.0857    19.9753    16.3786 H     118 HOH   0.0000 
355 O      -15.2190    -3.9751    16.6063 O.3   119 HOH   0.0000 
356 H1     -14.2590    -3.9751    16.6063 H     119 HOH   0.0000 
357 H2     -15.5093    -3.3280    17.2533 H     119 HOH   0.0000 
358 O       -6.4634     1.2531    38.9277 O.3   120 HOH   0.0000 
359 H1      -5.5034     1.2531    38.9277 H     120 HOH   0.0000 
360 H2      -6.7537     1.9001    39.5748 H     120 HOH   0.0000 
361 O       -7.9143    24.2161    46.9881 O.3   121 HOH   0.0000 
362 H1      -6.9543    24.2161    46.9881 H     121 HOH   0.0000 
363 H2      -8.2046    24.8632    47.6351 H     121 HOH   0.0000 
364 O      -20.8779     8.2392    41.6862 O.3   122 HOH   0.0000 
365 H1     -19.9179     8.2392    41.6862 H     122 HOH   0.0000 
366 H2     -21.1682     8.8862    42.3333 H     122 HOH   0.0000 
367 O      -29.4617    11.5435    31.0169 O.3   123 HOH   0.0000 
368 H1     -28.5017    11.5435    31.0169 H     123 HOH   0.0000 
369 H2     -29.7520    12.1906    31.6640 H     123 HOH   0.0000 
370 O       -3.2454     4.1300    35.3785 O.3   124 HOH   0.0000 
371 H1      -2.2854     4.1300    35.3785 H     124 HOH   0.0000 
372 H2      -3.5357     4.7770    36.0256 H     124 HOH   0.0000 
373 O        0.8298    18.5891    26.7181 O.3   125 HOH  -0.8340 
374 H1       0.8521    18.9476    27.6054 H     125 HOH   0.4170 
375 H2       0.1791    19.1215    26.2605 H     125 HOH   0.4170 
376 O      -17.1305    21.4460    13.1310 O.3   126 HOH   0.0000 
377 H1     -16.1705    21.4460    13.1310 H     126 HOH   0.0000 
378 H2     -17.4207    22.0930    13.7781 H     126 HOH   0.0000 
379 O      -20.1722    27.9809    26.8778 O.3   127 HOH   0.0000 
380 H1     -19.2122    27.9809    26.8778 H     127 HOH   0.0000 
381 H2     -20.4625    28.6280    27.5248 H     127 HOH   0.0000 
382 O      -19.3181     1.9022    19.3267 O.3   128 HOH   0.0000 
383 H1     -18.3581     1.9022    19.3267 H     128 HOH   0.0000 
384 H2     -19.6084     2.5492    19.9737 H     128 HOH   0.0000 
385 O      -11.8650    17.3748     9.4442 O.3   129 HOH   0.0000 
386 H1     -10.9050    17.3748     9.4442 H     129 HOH   0.0000 
387 H2     -12.1552    18.0219    10.0912 H     129 HOH   0.0000 
388 O       -6.1938    -1.6331    30.8396 O.3   130 HOH   0.0000 
389 H1      -5.2338    -1.6331    30.8396 H     130 HOH   0.0000 
390 H2      -6.4841    -0.9860    31.4866 H     130 HOH   0.0000 
391 O       10.4361    33.4685    33.7402 O.3   131 HOH   0.0000 
392 H1      11.3961    33.4685    33.7402 H     131 HOH   0.0000 
393 H2      10.1458    34.1155    34.3873 H     131 HOH   0.0000 
394 O      -17.1804     1.2587    29.9644 O.3   132 HOH   0.0000 
395 H1     -16.2204     1.2587    29.9644 H     132 HOH   0.0000 
396 H2     -17.4707     1.9058    30.6115 H     132 HOH   0.0000 
397 O      -26.9692     3.8826    34.1747 O.3   133 HOH   0.0000 
398 H1     -26.0092     3.8826    34.1747 H     133 HOH   0.0000 
399 H2     -27.2595     4.5296    34.8218 H     133 HOH   0.0000 
400 O       -4.2552     5.5055    33.5475 O.3   134 HOH   0.0000 
401 H1      -3.2952     5.5055    33.5475 H     134 HOH   0.0000 
402 H2      -4.5455     6.1525    34.1945 H     134 HOH   0.0000 
403 O       11.1265    19.9308    55.1561 O.3   135 HOH   0.0000 
404 H1      12.0865    19.9308    55.1561 H     135 HOH   0.0000 
405 H2      10.8362    20.5778    55.8031 H     135 HOH   0.0000 
406 O      -14.0416    -6.3454    22.2760 O.3   136 HOH   0.0000 
407 H1     -13.0816    -6.3454    22.2760 H     136 HOH   0.0000 
408 H2     -14.3319    -5.6984    22.9230 H     136 HOH   0.0000 
409 O        2.6752    17.1033    25.3245 O.3   137 HOH   0.0000 
410 H1       3.6352    17.1033    25.3245 H     137 HOH   0.0000 
411 H2       2.3849    17.7503    25.9716 H     137 HOH   0.0000 
412 O      -18.0804    -0.2219    20.2041 O.3   138 HOH   0.0000 
413 H1     -17.1204    -0.2219    20.2041 H     138 HOH   0.0000 
414 H2     -18.3707     0.4251    20.8511 H     138 HOH   0.0000 
415 O      -13.9680    -5.0899    24.3703 O.3   139 HOH   0.0000 
416 H1     -13.0080    -5.0899    24.3703 H     139 HOH   0.0000 
417 H2     -14.2583    -4.4428    25.0173 H     139 HOH   0.0000 
418 O        3.7467    12.6626    19.2387 O.3   140 HOH   0.0000 
419 H1       4.7067    12.6626    19.2387 H     140 HOH   0.0000 
420 H2       3.4564    13.3096    19.8857 H     140 HOH   0.0000 
421 O        3.0073    23.2995    53.8463 O.3   141 HOH   0.0000 
422 H1       3.9673    23.2995    53.8463 H     141 HOH   0.0000 
423 H2       2.7170    23.9465    54.4934 H     141 HOH   0.0000 
424 O       -1.3954    -9.2919    23.6808 O.3   142 HOH   0.0000 
425 H1      -0.4354    -9.2919    23.6808 H     142 HOH   0.0000 
426 H2      -1.6857    -8.6449    24.3278 H     142 HOH   0.0000 
427 O       -2.0214    26.6367    49.7298 O.3   143 HOH   0.0000 
428 H1      -1.0614    26.6367    49.7298 H     143 HOH   0.0000 
429 H2      -2.3117    27.2837    50.3769 H     143 HOH   0.0000 
430 O      -11.3501     3.3963    41.0053 O.3   144 HOH   0.0000 
431 H1     -10.3901     3.3963    41.0053 H     144 HOH   0.0000 
432 H2     -11.6404     4.0433    41.6524 H     144 HOH   0.0000 
433 O        9.4127    43.7299    33.8393 O.3   145 HOH   0.0000 
434 H1      10.3727    43.7299    33.8393 H     145 HOH   0.0000 
435 H2       9.1224    44.3770    34.4864 H     145 HOH   0.0000 
436 O        8.5445    16.5035    31.7908 O.3   146 HOH  -0.8340 
437 H1       7.8851    15.8476    31.5645 H     146 HOH   0.4170 
438 H2       8.6405    16.4298    32.7403 H     146 HOH   0.4170 
439 O        0.2356    23.1236    22.0850 O.3   147 HOH   0.0000 
440 H1       1.1956    23.1236    22.0850 H     147 HOH   0.0000 
441 H2      -0.0546    23.7706    22.7321 H     147 HOH   0.0000 
442 O        7.2447    24.3043    56.9341 O.3   148 HOH   0.0000 
443 H1       8.2047    24.3043    56.9341 H     148 HOH   0.0000 
444 H2       6.9545    24.9514    57.5812 H     148 HOH   0.0000 
445 O        6.2501    39.2102    47.6594 O.3   149 HOH   0.0000 
446 H1       7.2101    39.2102    47.6594 H     149 HOH   0.0000 
447 H2       5.9598    39.8573    48.3064 H     149 HOH   0.0000 
448 O       -3.5420     0.3513    31.3763 O.3   150 HOH   0.0000 
449 H1      -2.5820     0.3513    31.3763 H     150 HOH   0.0000 
450 H2      -3.8322     0.9984    32.0233 H     150 HOH   0.0000 
451 O       -1.9879    29.3041    19.7987 O.3   151 HOH   0.0000 
452 H1      -1.0279    29.3041    19.7987 H     151 HOH   0.0000 
453 H2      -2.2782    29.9511    20.4457 H     151 HOH   0.0000 
454 O      -18.6393     3.2886    42.1661 O.3   152 HOH   0.0000 
455 H1     -17.6793     3.2886    42.1661 H     152 HOH   0.0000 
456 H2     -18.9296     3.9356    42.8131 H     152 HOH   0.0000 
457 O       -6.4936    26.5361    45.7933 O.3   153 HOH   0.0000 
458 H1      -5.5336    26.5361    45.7933 H     153 HOH   0.0000 
459 H2      -6.7839    27.1831    46.4403 H     153 HOH   0.0000 
460 O      -22.6065    20.4226    15.1683 O.3   154 HOH   0.0000 
461 H1     -21.6465    20.4226    15.1683 H     154 HOH   0.0000 
462 H2     -22.8967    21.0697    15.8154 H     154 HOH   0.0000 
463 O      -20.0892    20.5702    16.1177 O.3   155 HOH   0.0000 
464 H1     -19.1292    20.5702    16.1177 H     155 HOH   0.0000 
465 H2     -20.3795    21.2173    16.7647 H     155 HOH   0.0000 
466 O        8.0282     4.4102    25.5700 O.3   156 HOH   0.0000 
467 H1       8.9882     4.4102    25.5700 H     156 HOH   0.0000 
468 H2       7.7379     5.0573    26.2170 H     156 HOH   0.0000 
469 O       12.3628    39.4913    32.4641 O.3   157 HOH   0.0000 
470 H1      13.3228    39.4913    32.4641 H     157 HOH   0.0000 
471 H2      12.0725    40.1383    33.1112 H     157 HOH   0.0000 
472 O       -4.9573    30.1689    36.5489 O.3   158 HOH   0.0000 
473 H1      -3.9973    30.1689    36.5489 H     158 HOH   0.0000 
474 H2      -5.2476    30.8160    37.1960 H     158 HOH   0.0000 
475 O       -6.3872    29.3548    38.9832 O.3   159 HOH   0.0000 
476 H1      -5.4272    29.3548    38.9832 H     159 HOH   0.0000 
477 H2      -6.6775    30.0019    39.6302 H     159 HOH   0.0000 
478 O      -18.1565     0.8665    34.0079 O.3   160 HOH   0.0000 
479 H1     -17.1965     0.8665    34.0079 H     160 HOH   0.0000 
480 H2     -18.4468     1.5136    34.6549 H     160 HOH   0.0000 
481 O      -18.6085    -0.1684    31.7334 O.3   161 HOH   0.0000 
482 H1     -17.6485    -0.1684    31.7334 H     161 HOH   0.0000 
483 H2     -18.8987     0.4786    32.3805 H     161 HOH   0.0000 
484 O       -0.2442    35.0129    40.7011 O.3   162 HOH   0.0000 
485 H1       0.7158    35.0129    40.7011 H     162 HOH   0.0000 
486 H2      -0.5344    35.6599    41.3481 H     162 HOH   0.0000 
487 O        9.6578    22.5548    32.4208 O.3   163 HOH  -0.8340 
488 H1      10.0955    23.2631    31.9487 H     163 HOH   0.4170 
489 H2       8.8292    22.9361    32.7111 H     163 HOH   0.4170 
490 O      -18.6753    25.7142    34.8063 O.3   164 HOH   0.0000 
491 H1     -17.7153    25.7142    34.8063 H     164 HOH   0.0000 
492 H2     -18.9656    26.3612    35.4533 H     164 HOH   0.0000 
493 O      -21.5262    14.8055    49.1441 O.3   165 HOH   0.0000 
494 H1     -20.5662    14.8055    49.1441 H     165 HOH   0.0000 
495 H2     -21.8165    15.4525    49.7912 H     165 HOH   0.0000 
496 O        5.0799     0.8506    19.8745 O.3   166 HOH   0.0000 
497 H1       6.0399     0.8506    19.8745 H     166 HOH   0.0000 
498 H2       4.7897     1.4977    20.5216 H     166 HOH   0.0000 
499 O       10.7591    20.2651    31.8009 O.3   167 HOH  -0.8340 
500 H1      11.5484    20.4346    32.3152 H     167 HOH   0.4170 
501 H2      10.2281    21.0541    31.9091 H     167 HOH   0.4170 
502 O       10.9805    20.7421    23.3429 O.3   168 HOH   0.0000 
503 H1      11.9405    20.7421    23.3429 H     168 HOH   0.0000 
504 H2      10.6902    21.3892    23.9900 H     168 HOH   0.0000 
505 O      -21.7802     7.3216    45.9035 O.3   169 HOH   0.0000 
506 H1     -20.8202     7.3216    45.9035 H     169 HOH   0.0000 
507 H2     -22.0705     7.9686    46.5505 H     169 HOH   0.0000 
508 O      -17.5730    26.2179    37.1109 O.3   170 HOH   0.0000 
509 H1     -16.6130    26.2179    37.1109 H     170 HOH   0.0000 
510 H2     -17.8632    26.8650    37.7580 H     170 HOH   0.0000 
511 O       -2.8977    37.2491    32.7296 O.3   171 HOH   0.0000 
512 H1      -1.9377    37.2491    32.7296 H     171 HOH   0.0000 
513 H2      -3.1880    37.8962    33.3767 H     171 HOH   0.0000 
514 O       14.0663    35.5793    41.4861 O.3   172 HOH   0.0000 
515 H1      15.0263    35.5793    41.4861 H     172 HOH   0.0000 
516 H2      13.7760    36.2264    42.1332 H     172 HOH   0.0000 
517 O       -4.7518    16.6776    14.6637 O.3   173 HOH   0.0000 
518 H1      -3.7918    16.6776    14.6637 H     173 HOH   0.0000 
519 H2      -5.0421    17.3246    15.3107 H     173 HOH   0.0000 
520 O      -20.7219     5.2339    44.6793 O.3   174 HOH   0.0000 
521 H1     -19.7619     5.2339    44.6793 H     174 HOH   0.0000 
522 H2     -21.0122     5.8810    45.3264 H     174 HOH   0.0000 
523 O       11.7452    50.6166    43.4827 O.3   175 HOH   0.0000 
524 H1      12.7052    50.6166    43.4827 H     175 HOH   0.0000 
525 H2      11.4549    51.2636    44.1297 H     175 HOH   0.0000 
526 O        2.6106    38.4863    33.1374 O.3   176 HOH   0.0000 
527 H1       3.5706    38.4863    33.1374 H     176 HOH   0.0000 
528 H2       2.3204    39.1333    33.7844 H     176 HOH   0.0000 
529 O      -12.8616    10.9583    49.5394 O.3   177 HOH   0.0000 
530 H1     -11.9016    10.9583    49.5394 H     177 HOH   0.0000 
531 H2     -13.1519    11.6053    50.1865 H     177 HOH   0.0000 
532 O        0.5839    40.1817    27.2269 O.3   178 HOH   0.0000 
533 H1       1.5439    40.1817    27.2269 H     178 HOH   0.0000 
534 H2       0.2936    40.8287    27.8740 H     178 HOH   0.0000 
535 O       -1.9525    40.7068    26.2781 O.3   179 HOH   0.0000 
536 H1      -0.9925    40.7068    26.2781 H     179 HOH   0.0000 
537 H2      -2.2428    41.3539    26.9251 H     179 HOH   0.0000 
538 O       -6.1761    31.8894    37.8548 O.3   180 HOH   0.0000 
539 H1      -5.2161    31.8894    37.8548 H     180 HOH   0.0000 
540 H2      -6.4663    32.5364    38.5018 H     180 HOH   0.0000 
541 O      -12.5703     5.4451    45.1378 O.3   181 HOH   0.0000 
542 H1     -11.6103     5.4451    45.1378 H     181 HOH   0.0000 
543 H2     -12.8606     6.0922    45.7848 H     181 HOH   0.0000 
544 O      -21.3072     7.2809    17.8033 O.3   182 HOH   0.0000 
545 H1     -20.3472     7.2809    17.8033 H     182 HOH   0.0000 
546 H2     -21.5975     7.9279    18.4504 H     182 HOH   0.0000 
547 O      -18.7789     3.6389    37.3991 O.3   183 HOH   0.0000 
548 H1     -17.8189     3.6389    37.3991 H     183 HOH   0.0000 
549 H2     -19.0691     4.2859    38.0461 H     183 HOH   0.0000 
550 O        1.3591    14.6369    42.4719 O.3   184 HOH  -0.8340 
551 H1       1.7078    15.4978    42.7030 H     184 HOH   0.4170 
552 H2       1.9241    14.3318    41.7619 H     184 HOH   0.4170 
553 O       -0.1315    13.3833    42.6186 O.3   185 HOH  -0.8340 
554 H1       0.4367    14.1534    42.6056 H     185 HOH   0.4170 
555 H2      -0.0688    13.0538    43.5151 H     185 HOH   0.4170 
556 O       -2.3679    34.2751    42.8277 O.3   186 HOH   0.0000 
557 H1      -1.4079    34.2751    42.8277 H     186 HOH   0.0000 
558 H2      -2.6581    34.9221    43.4748 H     186 HOH   0.0000 
559 O       -0.0865     4.0585    25.5118 O.3   187 HOH   0.0000 
560 H1       0.8735     4.0585    25.5118 H     187 HOH   0.0000 
561 H2      -0.3768     4.7055    26.1588 H     187 HOH   0.0000 
562 O       -0.8910     5.9274    46.1510 O.3   188 HOH   0.0000 
563 H1       0.0690     5.9274    46.1510 H     188 HOH   0.0000 
564 H2      -1.1813     6.5745    46.7980 H     188 HOH   0.0000 
565 O       -0.3235     1.1559    17.8784 O.3   189 HOH   0.0000 
566 H1       0.6365     1.1559    17.8784 H     189 HOH   0.0000 
567 H2      -0.6137     1.8029    18.5254 H     189 HOH   0.0000 
568 O      -15.5306    -0.0766    27.6853 O.3   190 HOH   0.0000 
569 H1     -14.5706    -0.0766    27.6853 H     190 HOH   0.0000 
570 H2     -15.8209     0.5704    28.3324 H     190 HOH   0.0000 
571 O       12.9199    30.2522    25.5336 O.3   191 HOH   0.0000 
572 H1      13.8799    30.2522    25.5336 H     191 HOH   0.0000 
573 H2      12.6297    30.8992    26.1806 H     191 HOH   0.0000 
574 O       11.9249    18.2231    28.6869 O.3   192 HOH  -0.8340 
575 H1      12.0572    18.5781    29.5659 H     192 HOH   0.4170 
576 H2      12.3046    18.8799    28.1032 H     192 HOH   0.4170 
577 O        4.6592    35.0118    28.5139 O.3   193 HOH   0.0000 
578 H1       5.6192    35.0118    28.5139 H     193 HOH   0.0000 
579 H2       4.3689    35.6589    29.1609 H     193 HOH   0.0000 
580 O      -12.3104    -3.2916    27.4659 O.3   194 HOH   0.0000 
581 H1     -11.3504    -3.2916    27.4659 H     194 HOH   0.0000 
582 H2     -12.6007    -2.6446    28.1129 H     194 HOH   0.0000 
583 O        3.8987    45.4416    37.7652 O.3   195 HOH   0.0000 
584 H1       4.8587    45.4416    37.7652 H     195 HOH   0.0000 
585 H2       3.6084    46.0886    38.4122 H     195 HOH   0.0000 
586 O        5.6399    45.3684    34.9337 O.3   196 HOH   0.0000 
587 H1       6.5999    45.3684    34.9337 H     196 HOH   0.0000 
588 H2       5.3496    46.0154    35.5808 H     196 HOH   0.0000 
589 O       -7.0488    -1.0385     8.1442 O.3   197 HOH   0.0000 
590 H1      -6.0888    -1.0385     8.1442 H     197 HOH   0.0000 
591 H2      -7.3390    -0.3914     8.7912 H     197 HOH   0.0000 
592 O        0.9930    21.9788    25.2759 O.3   198 HOH  -0.8340 
593 H1       1.4608    22.0719    26.1058 H     198 HOH   0.4170 
594 H2       0.2817    21.3680    25.4685 H     198 HOH   0.4170 
595 O      -20.5287     7.1742    37.2914 O.3   199 HOH   0.0000 
596 H1     -19.5687     7.1742    37.2914 H     199 HOH   0.0000 
597 H2     -20.8190     7.8213    37.9385 H     199 HOH   0.0000 
598 O      -20.8346    15.9371    18.2343 O.3   200 HOH   0.0000 
599 H1     -19.8746    15.9371    18.2343 H     200 HOH   0.0000 
600 H2     -21.1249    16.5841    18.8814 H     200 HOH   0.0000 
601 O      -15.9401     2.1226    38.7330 O.3   201 HOH   0.0000 
602 H1     -14.9801     2.1226    38.7330 H     201 HOH   0.0000 
603 H2     -16.2304     2.7696    39.3801 H     201 HOH   0.0000 
604 O       -5.2638    17.0880    10.3322 O.3   202 HOH   0.0000 
605 H1      -4.3038    17.0880    10.3322 H     202 HOH   0.0000 
606 H2      -5.5541    17.7351    10.9793 H     202 HOH   0.0000 
607 O      -22.5030    26.4996    17.8713 O.3   203 HOH   0.0000 
608 H1     -21.5430    26.4996    17.8713 H     203 HOH   0.0000 
609 H2     -22.7932    27.1466    18.5184 H     203 HOH   0.0000 
610 O        4.2069    23.2486    21.7287 O.3   204 HOH   0.0000 
611 H1       5.1669    23.2486    21.7287 H     204 HOH   0.0000 
612 H2       3.9166    23.8956    22.3757 H     204 HOH   0.0000 
613 O        9.9728    18.1200    56.1380 O.3   205 HOH   0.0000 
614 H1      10.9328    18.1200    56.1380 H     205 HOH   0.0000 
615 H2       9.6825    18.7671    56.7850 H     205 HOH   0.0000 
616 O       11.4328    51.8715    44.1713 O.3   206 HOH   0.0000 
617 H1      12.3928    51.8715    44.1713 H     206 HOH   0.0000 
618 H2      11.1425    52.5186    44.8183 H     206 HOH   0.0000 
619 O       -9.4551    18.1916    10.2538 O.3   207 HOH   0.0000 
620 H1      -8.4951    18.1916    10.2538 H     207 HOH   0.0000 
621 H2      -9.7453    18.8386    10.9008 H     207 HOH   0.0000 
@<TRIPOS>BOND
  1   1   2  1   
  2   1   3  1   
  3   4   5  1   
  4   4   6  1   
  5   7   8  1   
  6   7   9  1   
  7  10  11  1   
  8  10  12  1   
  9  13  14  1   
 10  13  15  1   
 11  16  17  1   
 12  16  18  1   
 13  19  20  1   
 14  19  21  1   
 15  22  23  1   
 16  22  24  1   
 17  25  26  1   
 18  25  27  1   
 19  28  29  1   
 20  28  30  1   
 21  31  32  1   
 22  31  33  1   
 23  34  35  1   
 24  34  36  1   
 25  37  38  1   
 26  37  39  1   
 27  40  41  1   
 28  40  42  1   
 29  43  44  1   
 30  43  45  1   
 31  46  47  1   
 32  46  48  1   
 33  49  50  1   
 34  49  51  1   
 35  52  53  1   
 36  52  54  1   
 37  55  56  1   
 38  55  57  1   
 39  58  59  1   
 40  58  60  1   
 41  61  62  1   
 42  61  63  1   
 43  64  65  1   
 44  64  66  1   
 45  67  68  1   
 46  67  69  1   
 47  70  71  1   
 48  70  72  1   
 49  73  74  1   
 50  73  75  1   
 51  76  77  1   
 52  76  78  1   
 53  79  80  1   
 54  79  81  1   
 55  82  83  1   
 56  82  84  1   
 57  85  86  1   
 58  85  87  1   
 59  88  89  1   
 60  88  90  1   
 61  91  92  1   
 62  91  93  1   
 63  94  95  1   
 64  94  96  1   
 65  97  98  1   
 66  97  99  1   
 67 100 101  1   
 68 100 102  1   
 69 103 104  1   
 70 103 105  1   
 71 106 107  1   
 72 106 108  1   
 73 109 110  1   
 74 109 111  1   
 75 112 113  1   
 76 112 114  1   
 77 115 116  1   
 78 115 117  1   
 79 118 119  1   
 80 118 120  1   
 81 121 122  1   
 82 121 123  1   
 83 124 125  1   
 84 124 126  1   
 85 127 128  1   
 86 127 129  1   
 87 130 131  1   
 88 130 132  1   
 89 133 134  1   
 90 133 135  1   
 91 136 137  1   
 92 136 138  1   
 93 139 140  1   
 94 139 141  1   
 95 142 143  1   
 96 142 144  1   
 97 145 146  1   
 98 145 147  1   
 99 148 149  1   
100 148 150  1   
101 151 152  1   
102 151 153  1   
103 154 155  1   
104 154 156  1   
105 157 158  1   
106 157 159  1   
107 160 161  1   
108 160 162  1   
109 163 164  1   
110 163 165  1   
111 166 167  1   
112 166 168  1   
113 169 170  1   
114 169 171  1   
115 172 173  1   
116 172 174  1   
117 175 176  1   
118 175 177  1   
119 178 179  1   
120 178 180  1   
121 181 182  1   
122 181 183  1   
123 184 185  1   
124 184 186  1   
125 187 188  1   
126 187 189  1   
127 190 191  1   
128 190 192  1   
129 193 194  1   
130 193 195  1   
131 196 197  1   
132 196 198  1   
133 199 200  1   
134 199 201  1   
135 202 203  1   
136 202 204  1   
137 205 206  1   
138 205 207  1   
139 208 209  1   
140 208 210  1   
141 211 212  1   
142 211 213  1   
143 214 215  1   
144 214 216  1   
145 217 218  1   
146 217 219  1   
147 220 221  1   
148 220 222  1   
149 223 224  1   
150 223 225  1   
151 226 227  1   
152 226 228  1   
153 229 230  1   
154 229 231  1   
155 232 233  1   
156 232 234  1   
157 235 236  1   
158 235 237  1   
159 238 239  1   
160 238 240  1   
161 241 242  1   
162 241 243  1   
163 244 245  1   
164 244 246  1   
165 247 248  1   
166 247 249  1   
167 250 251  1   
168 250 252  1   
169 253 254  1   
170 253 255  1   
171 256 257  1   
172 256 258  1   
173 259 260  1   
174 259 261  1   
175 262 263  1   
176 262 264  1   
177 265 266  1   
178 265 267  1   
179 268 269  1   
180 268 270  1   
181 271 272  1   
182 271 273  1   
183 274 275  1   
184 274 276  1   
185 277 278  1   
186 277 279  1   
187 280 281  1   
188 280 282  1   
189 283 284  1   
190 283 285  1   
191 286 287  1   
192 286 288  1   
193 289 290  1   
194 289 291  1   
195 292 293  1   
196 292 294  1   
197 295 296  1   
198 295 297  1   
199 298 299  1   
200 298 300  1   
201 301 302  1   
202 301 303  1   
203 304 305  1   
204 304 306  1   
205 307 308  1   
206 307 309  1   
207 310 311  1   
208 310 312  1   
209 313 314  1   
210 313 315  1   
211 316 317  1   
212 316 318  1   
213 319 320  1   
214 319 321  1   
215 322 323  1   
216 322 324  1   
217 325 326  1   
218 325 327  1   
219 328 329  1   
220 328 330  1   
221 331 332  1   
222 331 333  1   
223 334 335  1   
224 334 336  1   
225 337 338  1   
226 337 339  1   
227 340 341  1   
228 340 342  1   
229 343 344  1   
230 343 345  1   
231 346 347  1   
232 346 348  1   
233 349 350  1   
234 349 351  1   
235 352 353  1   
236 352 354  1   
237 355 356  1   
238 355 357  1   
239 358 359  1   
240 358 360  1   
241 361 362  1   
242 361 363  1   
243 364 365  1   
244 364 366  1   
245 367 368  1   
246 367 369  1   
247 370 371  1   
248 370 372  1   
249 373 374  1   
250 373 375  1   
251 376 377  1   
252 376 378  1   
253 379 380  1   
254 379 381  1   
255 382 383  1   
256 382 384  1   
257 385 386  1   
258 385 387  1   
259 388 389  1   
260 388 390  1   
261 391 392  1   
262 391 393  1   
263 394 395  1   
264 394 396  1   
265 397 398  1   
266 397 399  1   
267 400 401  1   
268 400 402  1   
269 403 404  1   
270 403 405  1   
271 406 407  1   
272 406 408  1   
273 409 410  1   
274 409 411  1   
275 412 413  1   
276 412 414  1   
277 415 416  1   
278 415 417  1   
279 418 419  1   
280 418 420  1   
281 421 422  1   
282 421 423  1   
283 424 425  1   
284 424 426  1   
285 427 428  1   
286 427 429  1   
287 430 431  1   
288 430 432  1   
289 433 434  1   
290 433 435  1   
291 436 437  1   
292 436 438  1   
293 439 440  1   
294 439 441  1   
295 442 443  1   
296 442 444  1   
297 445 446  1   
298 445 447  1   
299 448 449  1   
300 448 450  1   
301 451 452  1   
302 451 453  1   
303 454 455  1   
304 454 456  1   
305 457 458  1   
306 457 459  1   
307 460 461  1   
308 460 462  1   
309 463 464  1   
310 463 465  1   
311 466 467  1   
312 466 468  1   
313 469 470  1   
314 469 471  1   
315 472 473  1   
316 472 474  1   
317 475 476  1   
318 475 477  1   
319 478 479  1   
320 478 480  1   
321 481 482  1   
322 481 483  1   
323 484 485  1   
324 484 486  1   
325 487 488  1   
326 487 489  1   
327 490 491  1   
328 490 492  1   
329 493 494  1   
330 493 495  1   
331 496 497  1   
332 496 498  1   
333 499 500  1   
334 499 501  1   
335 502 503  1   
336 502 504  1   
337 505 506  1   
338 505 507  1   
339 508 509  1   
340 508 510  1   
341 511 512  1   
342 511 513  1   
343 514 515  1   
344 514 516  1   
345 517 518  1   
346 517 519  1   
347 520 521  1   
348 520 522  1   
349 523 524  1   
350 523 525  1   
351 526 527  1   
352 526 528  1   
353 529 530  1   
354 529 531  1   
355 532 533  1   
356 532 534  1   
357 535 536  1   
358 535 537  1   
359 538 539  1   
360 538 540  1   
361 541 542  1   
362 541 543  1   
363 544 545  1   
364 544 546  1   
365 547 548  1   
366 547 549  1   
367 550 551  1   
368 550 552  1   
369 553 554  1   
370 553 555  1   
371 556 557  1   
372 556 558  1   
373 559 560  1   
374 559 561  1   
375 562 563  1   
376 562 564  1   
377 565 566  1   
378 565 567  1   
379 568 569  1   
380 568 570  1   
381 571 572  1   
382 571 573  1   
383 574 575  1   
384 574 576  1   
385 577 578  1   
386 577 579  1   
387 580 581  1   
388 580 582  1   
389 583 584  1   
390 583 585  1   
391 586 587  1   
392 586 588  1   
393 589 590  1   
394 589 591  1   
395 592 593  1   
396 592 594  1   
397 595 596  1   
398 595 597  1   
399 598 599  1   
400 598 600  1   
401 601 602  1   
402 601 603  1   
403 604 605  1   
404 604 606  1   
405 607 608  1   
406 607 609  1   
407 610 611  1   
408 610 612  1   
409 613 614  1   
410 613 615  1   
411 616 617  1   
412 616 618  1   
413 619 620  1   
414 619 621  1   
@<TRIPOS>SUBSTRUCTURE
  1 HOH   1 GROUP 4 A **** 0
  2 HOH   4 GROUP 4 A **** 0
  3 HOH   7 GROUP 4 A **** 0
  4 HOH  10 GROUP 4 A **** 0
  5 HOH  13 GROUP 4 A **** 0
  6 HOH  16 GROUP 4 A **** 0
  7 HOH  19 GROUP 4 A **** 0
  8 HOH  22 GROUP 4 A **** 0
  9 HOH  25 GROUP 4 A **** 0
 10 HOH  28 GROUP 4 A **** 0
 11 HOH  31 GROUP 4 A **** 0
 12 HOH  34 GROUP 4 A **** 0
 13 HOH  37 GROUP 4 A **** 0
 14 HOH  40 GROUP 4 A **** 0
 15 HOH  43 GROUP 4 A **** 0
 16 HOH  46 GROUP 4 A **** 0
 17 HOH  49 GROUP 4 A **** 0
 18 HOH  52 GROUP 4 A **** 0
 19 HOH  55 GROUP 4 A **** 0
 20 HOH  58 GROUP 4 A **** 0
 21 HOH  61 GROUP 4 A **** 0
 22 HOH  64 GROUP 4 A **** 0
 23 HOH  67 GROUP 4 A **** 0
 24 HOH  70 GROUP 4 A **** 0
 25 HOH  73 GROUP 4 A **** 0
 26 HOH  76 GROUP 4 A **** 0
 27 HOH  79 GROUP 4 A **** 0
 28 HOH  82 GROUP 4 A **** 0
 29 HOH  85 GROUP 4 A **** 0
 30 HOH  88 GROUP 4 A **** 0
 31 HOH  91 GROUP 4 A **** 0
 32 HOH  94 GROUP 4 A **** 0
 33 HOH  97 GROUP 4 A **** 0
 34 HOH 100 GROUP 4 A **** 0
 35 HOH 103 GROUP 4 A **** 0
 36 HOH 106 GROUP 4 A **** 0
 37 HOH 109 GROUP 4 A **** 0
 38 HOH 112 GROUP 4 A **** 0
 39 HOH 115 GROUP 4 A **** 0
 40 HOH 118 GROUP 4 A **** 0
 41 HOH 121 GROUP 4 A **** 0
 42 HOH 124 GROUP 4 A **** 0
 43 HOH 127 GROUP 4 A **** 0
 44 HOH 130 GROUP 4 A **** 0
 45 HOH 133 GROUP 4 A **** 0
 46 HOH 136 GROUP 4 A **** 0
 47 HOH 139 GROUP 4 A **** 0
 48 HOH 142 GROUP 4 A **** 0
 49 HOH 145 GROUP 4 A **** 0
 50 HOH 148 GROUP 4 A **** 0
 51 HOH 151 GROUP 4 A **** 0
 52 HOH 154 GROUP 4 A **** 0
 53 HOH 157 GROUP 4 A **** 0
 54 HOH 160 GROUP 4 A **** 0
 55 HOH 163 GROUP 4 A **** 0
 56 HOH 166 GROUP 4 A **** 0
 57 HOH 169 GROUP 4 A **** 0
 58 HOH 172 GROUP 4 A **** 0
 59 HOH 175 GROUP 4 A **** 0
 60 HOH 178 GROUP 4 A **** 0
 61 HOH 181 GROUP 4 A **** 0
 62 HOH 184 GROUP 4 A **** 0
 63 HOH 187 GROUP 4 A **** 0
 64 HOH 190 GROUP 4 A **** 0
 65 HOH 193 GROUP 4 A **** 0
 66 HOH 196 GROUP 4 A **** 0
 67 HOH 199 GROUP 4 A **** 0
 68 HOH 202 GROUP 4 A **** 0
 69 HOH 205 GROUP 4 A **** 0
 70 HOH 208 GROUP 4 A **** 0
 71 HOH 211 GROUP 4 A **** 0
 72 HOH 214 GROUP 4 A **** 0
 73 HOH 217 GROUP 4 A **** 0
 74 HOH 220 GROUP 4 A **** 0
 75 HOH 223 GROUP 4 A **** 0
 76 HOH 226 GROUP 4 A **** 0
 77 HOH 229 GROUP 4 A **** 0
 78 HOH 232 GROUP 4 A **** 0
 79 HOH 235 GROUP 4 A **** 0
 80 HOH 238 GROUP 4 A **** 0
 81 HOH 241 GROUP 4 A **** 0
 82 HOH 244 GROUP 4 A **** 0
 83 HOH 247 GROUP 4 A **** 0
 84 HOH 250 GROUP 4 A **** 0
 85 HOH 253 GROUP 4 A **** 0
 86 HOH 256 GROUP 4 A **** 0
 87 HOH 259 GROUP 4 A **** 0
 88 HOH 262 GROUP 4 A **** 0
 89 HOH 265 GROUP 4 A **** 0
 90 HOH 268 GROUP 4 A **** 0
 91 HOH 271 GROUP 4 A **** 0
 92 HOH 274 GROUP 4 A **** 0
 93 HOH 277 GROUP 4 A **** 0
 94 HOH 280 GROUP 4 A **** 0
 95 HOH 283 GROUP 4 A **** 0
 96 HOH 286 GROUP 4 A **** 0
 97 HOH 289 GROUP 4 A **** 0
 98 HOH 292 GROUP 4 A **** 0
 99 HOH 295 GROUP 4 A **** 0
100 HOH 298 GROUP 4 A **** 0
101 HOH 301 GROUP 4 A **** 0
102 HOH 304 GROUP 4 A **** 0
103 HOH 307 GROUP 4 A **** 0
104 HOH 310 GROUP 4 A **** 0
105 HOH 313 GROUP 4 A **** 0
106 HOH 316 GROUP 4 A **** 0
107 HOH 319 GROUP 4 A **** 0
108 HOH 322 GROUP 4 A **** 0
109 HOH 325 GROUP 4 A **** 0
110 HOH 328 GROUP 4 A **** 0
111 HOH 331 GROUP 4 A **** 0
112 HOH 334 GROUP 4 A **** 0
113 HOH 337 GROUP 4 A **** 0
114 HOH 340 GROUP 4 A **** 0
115 HOH 343 GROUP 4 A **** 0
116 HOH 346 GROUP 4 A **** 0
117 HOH 349 GROUP 4 A **** 0
118 HOH 352 GROUP 4 A **** 0
119 HOH 355 GROUP 4 A **** 0
120 HOH 358 GROUP 4 A **** 0
121 HOH 361 GROUP 4 A **** 0
122 HOH 364 GROUP 4 A **** 0
123 HOH 367 GROUP 4 A **** 0
124 HOH 370 GROUP 4 A **** 0
125 HOH 373 GROUP 4 A **** 0
126 HOH 376 GROUP 4 A **** 0
127 HOH 379 GROUP 4 A **** 0
128 HOH 382 GROUP 4 A **** 0
129 HOH 385 GROUP 4 A **** 0
130 HOH 388 GROUP 4 A **** 0
131 HOH 391 GROUP 4 A **** 0
132 HOH 394 GROUP 4 A **** 0
133 HOH 397 GROUP 4 A **** 0
134 HOH 400 GROUP 4 A **** 0
135 HOH 403 GROUP 4 A **** 0
136 HOH 406 GROUP 4 A **** 0
137 HOH 409 GROUP 4 A **** 0
138 HOH 412 GROUP 4 A **** 0
139 HOH 415 GROUP 4 A **** 0
140 HOH 418 GROUP 4 A **** 0
141 HOH 421 GROUP 4 A **** 0
142 HOH 424 GROUP 4 A **** 0
143 HOH 427 GROUP 4 A **** 0
144 HOH 430 GROUP 4 A **** 0
145 HOH 433 GROUP 4 A **** 0
146 HOH 436 GROUP 4 A **** 0
147 HOH 439 GROUP 4 A **** 0
148 HOH 442 GROUP 4 A **** 0
149 HOH 445 GROUP 4 A **** 0
150 HOH 448 GROUP 4 A **** 0
151 HOH 451 GROUP 4 A **** 0
152 HOH 454 GROUP 4 A **** 0
153 HOH 457 GROUP 4 A **** 0
154 HOH 460 GROUP 4 A **** 0
155 HOH 463 GROUP 4 A **** 0
156 HOH 466 GROUP 4 A **** 0
157 HOH 469 GROUP 4 A **** 0
158 HOH 472 GROUP 4 A **** 0
159 HOH 475 GROUP 4 A **** 0
160 HOH 478 GROUP 4 A **** 0
161 HOH 481 GROUP 4 A **** 0
162 HOH 484 GROUP 4 A **** 0
163 HOH 487 GROUP 4 A **** 0
164 HOH 490 GROUP 4 A **** 0
165 HOH 493 GROUP 4 A **** 0
166 HOH 496 GROUP 4 A **** 0
167 HOH 499 GROUP 4 A **** 0
168 HOH 502 GROUP 4 A **** 0
169 HOH 505 GROUP 4 A **** 0
170 HOH 508 GROUP 4 A **** 0
171 HOH 511 GROUP 4 A **** 0
172 HOH 514 GROUP 4 A **** 0
173 HOH 517 GROUP 4 A **** 0
174 HOH 520 GROUP 4 A **** 0
175 HOH 523 GROUP 4 A **** 0
176 HOH 526 GROUP 4 A **** 0
177 HOH 529 GROUP 4 A **** 0
178 HOH 532 GROUP 4 A **** 0
179 HOH 535 GROUP 4 A **** 0
180 HOH 538 GROUP 4 A **** 0
181 HOH 541 GROUP 4 A **** 0
182 HOH 544 GROUP 4 A **** 0
183 HOH 547 GROUP 4 A **** 0
184 HOH 550 GROUP 4 A **** 0
185 HOH 553 GROUP 4 A **** 0
186 HOH 556 GROUP 4 A **** 0
187 HOH 559 GROUP 4 A **** 0
188 HOH 562 GROUP 4 A **** 0
189 HOH 565 GROUP 4 A **** 0
190 HOH 568 GROUP 4 A **** 0
191 HOH 571 GROUP 4 A **** 0
192 HOH 574 GROUP 4 A **** 0
193 HOH 577 GROUP 4 A **** 0
194 HOH 580 GROUP 4 A **** 0
195 HOH 583 GROUP 4 A **** 0
196 HOH 586 GROUP 4 A **** 0
197 HOH 589 GROUP 4 A **** 0
198 HOH 592 GROUP 4 A **** 0
199 HOH 595 GROUP 4 A **** 0
200 HOH 598 GROUP 4 A **** 0
201 HOH 601 GROUP 4 A **** 0
202 HOH 604 GROUP 4 A **** 0
203 HOH 607 GROUP 4 A **** 0
204 HOH 610 GROUP 4 A **** 0
205 HOH 613 GROUP 4 A **** 0
206 HOH 616 GROUP 4 A **** 0
207 HOH 619 GROUP 4 A **** 0

# MOE 2012.10 (io_trps.svl 2012.10)
