@<TRIPOS>MOLECULE
4-[(4-methylpiperazin-1-yl)methyl]-~{N}-[4-methyl-3-[[4-(3-pyridyl)pyrimidin-2-yl]amino]phenyl]benzamide
   68    72     0     0     0
SMALL
USER_CHARGES

@<TRIPOS>ATOM
      1 C1        -39.5755   -8.7181  -58.9996 C.ar      1 MOL        -0.2506
      2 C2        -40.1688   -9.1742  -57.8278 C.ar      1 MOL        -0.0711
      3 C3        -42.1153  -14.7440  -63.6464 C.ar      1 MOL        -0.0933
      4 C4        -44.1664  -13.7371  -62.8613 C.ar      1 MOL        -0.0933
      5 C5        -42.2867  -14.1270  -64.8855 C.ar      1 MOL        -0.1271
      6 C6        -44.3377  -13.1200  -64.1005 C.ar      1 MOL        -0.1271
      7 C7        -43.3257  -16.5601  -57.1590 C.ar      1 MOL        -0.0880
      8 C8        -43.3521  -16.2144  -58.5101 C.ar      1 MOL        -0.1675
      9 C9        -42.2954   -9.3087  -55.5641 C.ar      1 MOL        -0.4095
     10 C10       -43.5057  -13.8793  -57.9095 C.ar      1 MOL        -0.1860
     11 C11       -40.3243   -8.7602  -60.1647 C.ar      1 MOL         0.4040
     12 C12       -42.9221   -9.8849  -54.4780 C.ar      1 MOL         0.4616
     13 C13       -42.1383   -9.6517  -59.0726 C.ar      1 MOL         0.4307
     14 C14       -41.4744   -9.6517  -57.8564 C.ar      1 MOL        -0.2733
     15 C15       -43.0552  -14.5491  -62.6343 C.ar      1 MOL        -0.1523
     16 C16       -43.3978  -13.3149  -65.1126 C.ar      1 MOL        -0.0603
     17 C17       -43.3893  -15.5654  -56.1832 C.ar      1 MOL        -0.1448
     18 C18       -43.4421  -14.8740  -58.8853 C.ar      1 MOL         0.0847
     19 C19       -43.4793  -14.2250  -56.5585 C.ar      1 MOL         0.1772
     20 C20       -42.1176  -10.1322  -56.6570 C.ar      1 MOL         0.5363
     21 C21       -43.1156  -11.8655  -55.5768 C.ar      1 MOL         0.8872
     22 C22       -42.8773  -15.1916  -61.3417 C.2       1 MOL         0.6835
     23 C23       -42.3299   -9.1074  -66.0862 C.3       1 MOL         0.1708
     24 C24       -44.3800   -9.0753  -67.3558 C.3       1 MOL         0.1708
     25 C25       -42.2793  -10.6344  -66.2069 C.3       1 MOL         0.1753
     26 C26       -44.3283  -10.6022  -67.4774 C.3       1 MOL         0.1753
     27 C27       -43.3589  -15.9640  -54.7436 C.3       1 MOL        -0.0528
     28 C28       -43.0795   -7.0589  -67.1143 C.3       1 MOL         0.1609
     29 C29       -43.5812  -12.6501  -66.4462 C.3       1 MOL         0.2165
     30 N1        -41.5949   -9.2169  -60.2316 N.ar      1 MOL        -0.6654
     31 N2        -43.3468  -11.1652  -54.4499 N.ar      1 MOL        -0.7391
     32 N3        -42.5166  -11.4204  -56.6978 N.ar      1 MOL        -0.7480
     33 N4        -43.0287   -8.5148  -67.2331 N.3       1 MOL        -0.7397
     34 N5        -43.6309  -11.1941  -66.3292 N.3       1 MOL        -0.7459
     35 N6        -43.5456  -13.2052  -55.5836 N.pl3     1 MOL        -0.7209
     36 N7        -43.4693  -14.5234  -60.2588 N.am      1 MOL        -0.4687
     37 O1        -42.2188  -16.2335  -61.2175 O.2       1 MOL        -0.5862
     38 H1        -38.5594   -8.3407  -59.0017 H         1 MOL         0.1463
     39 H2        -39.6021   -9.1518  -56.9003 H         1 MOL         0.1439
     40 H3        -41.2460  -15.3748  -63.4797 H         1 MOL         0.1467
     41 H4        -44.9052  -13.5781  -62.0801 H         1 MOL         0.1467
     42 H5        -41.5493  -14.2841  -65.6683 H         1 MOL         0.1452
     43 H6        -45.2062  -12.4884  -64.2685 H         1 MOL         0.1452
     44 H7        -43.2550  -17.6072  -56.8766 H         1 MOL         0.1366
     45 H8        -43.3015  -16.9976  -59.2623 H         1 MOL         0.1760
     46 H9        -41.9696   -8.2761  -55.5450 H         1 MOL         0.1589
     47 H10       -43.5762  -12.8337  -58.2026 H         1 MOL         0.1531
     48 H11       -39.9069   -8.4163  -61.1056 H         1 MOL         0.0247
     49 H12       -43.1056   -9.3158  -53.5729 H         1 MOL         0.0273
     50 H13       -43.1597  -10.0105  -59.1621 H         1 MOL         0.0334
     51 H14       -42.8183   -8.8279  -65.1427 H         1 MOL         0.0372
     52 H15       -41.3007   -8.7307  -66.0444 H         1 MOL         0.0372
     53 H16       -44.8671   -8.6746  -68.2531 H         1 MOL         0.0372
     54 H17       -45.0007   -8.7944  -66.4941 H         1 MOL         0.0372
     55 H18       -41.6589  -10.9162  -67.0686 H         1 MOL         0.0379
     56 H19       -41.7922  -11.0351  -65.3096 H         1 MOL         0.0379
     57 H20       -45.3573  -10.9793  -67.5204 H         1 MOL         0.0379
     58 H21       -43.8384  -10.8813  -68.4202 H         1 MOL         0.0379
     59 H22       -42.3252  -15.9968  -54.3809 H         1 MOL         0.0437
     60 H23       -43.9247  -15.2568  -54.1250 H         1 MOL         0.0437
     61 H24       -43.8130  -16.9516  -54.5968 H         1 MOL         0.0437
     62 H25       -43.6018   -6.6298  -67.9734 H         1 MOL         0.0323
     63 H26       -42.0673   -6.6472  -67.0763 H         1 MOL         0.0323
     64 H27       -43.6089   -6.7724  -66.2016 H         1 MOL         0.0323
     65 H28       -42.7578  -12.9062  -67.1218 H         1 MOL         0.0434
     66 H29       -44.5093  -12.9794  -66.9251 H         1 MOL         0.0434
     67 H30       -43.9903  -13.4993  -54.7199 H         1 MOL         0.4542
     68 H31       -43.9850  -13.6776  -60.4892 H         1 MOL         0.3224
@<TRIPOS>BOND
     1    1    2 ar
     2    1   11 ar
     3    2   14 ar
     4    3    5 ar
     5    3   15 ar
     6    4    6 ar
     7    4   15 ar
     8    5   16 ar
     9    6   16 ar
    10    7    8 ar
    11    7   17 ar
    12    8   18 ar
    13    9   12 ar
    14    9   20 ar
    15   10   18 ar
    16   10   19 ar
    17   11   30 ar
    18   12   31 ar
    19   13   14 ar
    20   13   30 ar
    21   14   20 1
    22   15   22 1
    23   16   29 1
    24   17   19 ar
    25   17   27 1
    26   18   36 1
    27   19   35 1
    28   20   32 ar
    29   21   31 ar
    30   21   32 ar
    31   21   35 1
    32   22   36 am
    33   22   37 2
    34   23   25 1
    35   23   33 1
    36   24   26 1
    37   24   33 1
    38   25   34 1
    39   26   34 1
    40   28   33 1
    41   29   34 1
    42    1   38 1
    43    2   39 1
    44    3   40 1
    45    4   41 1
    46    5   42 1
    47    6   43 1
    48    7   44 1
    49    8   45 1
    50    9   46 1
    51   10   47 1
    52   11   48 1
    53   12   49 1
    54   13   50 1
    55   23   51 1
    56   23   52 1
    57   24   53 1
    58   24   54 1
    59   25   55 1
    60   25   56 1
    61   26   57 1
    62   26   58 1
    63   27   59 1
    64   27   60 1
    65   27   61 1
    66   28   62 1
    67   28   63 1
    68   28   64 1
    69   29   65 1
    70   29   66 1
    71   35   67 1
    72   36   68 1
