@<TRIPOS>MOLECULE
~{N}-(3-chloro-4-fluoro-phenyl)-7-methoxy-6-(3-morpholinopropoxy)quinazolin-4-amine
   55    58     0     0     0
SMALL
USER_CHARGES

@<TRIPOS>ATOM
      1 C1        -38.8520  -16.2918  -46.2317 C.ar      1 MOL        -0.0786
      2 C2        -38.1474  -17.4157  -45.8007 C.ar      1 MOL        -0.1504
      3 C3        -40.3703  -12.5266  -48.9715 C.ar      1 MOL        -0.1130
      4 C4        -41.7911  -10.6381  -47.5117 C.ar      1 MOL        -0.1819
      5 C5        -39.4049  -17.4281  -48.2909 C.ar      1 MOL        -0.1435
      6 C6        -42.1331  -13.5307  -45.4208 C.ar      1 MOL         0.6680
      7 C7        -40.9743  -12.8771  -47.7515 C.ar      1 MOL        -0.2849
      8 C8        -41.6952  -11.9315  -47.0041 C.ar      1 MOL         0.4333
      9 C9        -39.4808  -16.2980  -47.4768 C.ar      1 MOL         0.1157
     10 C10       -40.4822  -11.2268  -49.4551 C.ar      1 MOL         0.0877
     11 C11       -41.1933  -10.2818  -48.7241 C.ar      1 MOL         0.0950
     12 C12       -38.0714  -18.5458  -46.6147 C.ar      1 MOL         0.1283
     13 C13       -38.7002  -18.5520  -47.8598 C.ar      1 MOL        -0.0096
     14 C14       -40.9006  -14.1584  -47.2124 C.ar      1 MOL         0.6927
     15 C15       -39.2192   -8.2255  -54.4639 C.3       1 MOL         0.1373
     16 C16       -37.3753   -8.3198  -52.9180 C.3       1 MOL         0.1373
     17 C17       -39.1648   -6.7021  -54.3917 C.3       1 MOL         0.1276
     18 C18       -37.3651   -6.7943  -52.8814 C.3       1 MOL         0.1276
     19 C19       -40.3112   -8.0738  -48.7764 C.3       1 MOL         0.1191
     20 C20       -40.1627  -10.8240  -53.0240 C.3       1 MOL        -0.0919
     21 C21       -38.7657  -10.2626  -53.2535 C.3       1 MOL         0.1801
     22 C22       -40.7478  -10.4196  -51.6763 C.3       1 MOL         0.1312
     23 N1        -42.2770  -12.2559  -45.8362 N.ar      1 MOL        -0.7055
     24 N2        -41.4706  -14.5169  -46.0465 N.ar      1 MOL        -0.7528
     25 N3        -38.7338   -8.8024  -53.2025 N.3       1 MOL        -0.7374
     26 N4        -40.1895  -15.1663  -47.9101 N.pl3     1 MOL        -0.7173
     27 O1        -37.8325   -6.2641  -54.1223 O.3       1 MOL        -0.4163
     28 O2        -41.3155   -9.0031  -49.1785 O.3       1 MOL        -0.3500
     29 O3        -39.8908  -10.8920  -50.6453 O.3       1 MOL        -0.3428
     30 F1        -37.3901  -19.6184  -46.1869 F         1 MOL        -0.1242
     31 Cl1       -38.6087  -19.9430  -48.8701 Cl        1 MOL        -0.0642
     32 H1        -38.9058  -15.4164  -45.5890 H         1 MOL         0.1696
     33 H2        -37.6576  -17.4103  -44.8314 H         1 MOL         0.1585
     34 H3        -39.8103  -13.2526  -49.5563 H         1 MOL         0.1459
     35 H4        -42.3440   -9.8841  -46.9534 H         1 MOL         0.1707
     36 H5        -39.8962  -17.4287  -49.2614 H         1 MOL         0.1514
     37 H6        -42.6042  -13.7856  -44.4793 H         1 MOL         0.0566
     38 H7        -40.2534   -8.5366  -54.6509 H         1 MOL         0.0402
     39 H8        -38.6022   -8.5728  -55.3028 H         1 MOL         0.0402
     40 H9        -36.6775   -8.6710  -53.6893 H         1 MOL         0.0402
     41 H10       -37.0315   -8.7005  -51.9495 H         1 MOL         0.0402
     42 H11       -39.4689   -6.2733  -55.3520 H         1 MOL         0.0537
     43 H12       -39.8419   -6.3096  -53.6234 H         1 MOL         0.0537
     44 H13       -37.9809   -6.4041  -52.0617 H         1 MOL         0.0537
     45 H14       -36.3436   -6.4317  -52.7288 H         1 MOL         0.0537
     46 H15       -40.5277   -7.0931  -49.2071 H         1 MOL         0.0460
     47 H16       -39.3329   -8.4242  -49.1147 H         1 MOL         0.0460
     48 H17       -40.3123   -7.9988  -47.6864 H         1 MOL         0.0460
     49 H18       -40.8297  -10.4723  -53.8210 H         1 MOL         0.0611
     50 H19       -40.1533  -11.9185  -53.1024 H         1 MOL         0.0611
     51 H20       -38.0831  -10.6238  -52.4780 H         1 MOL         0.0341
     52 H21       -38.3721  -10.5721  -54.2270 H         1 MOL         0.0341
     53 H22       -40.8259   -9.3316  -51.5878 H         1 MOL         0.0501
     54 H23       -41.7392  -10.8613  -51.5335 H         1 MOL         0.0501
     55 H24       -40.1992  -15.0399  -48.9153 H         1 MOL         0.4263
@<TRIPOS>BOND
     1    1    2 ar
     2    1    9 ar
     3    2   12 ar
     4    3    7 ar
     5    3   10 ar
     6    4    8 ar
     7    4   11 ar
     8    5    9 ar
     9    5   13 ar
    10    6   23 ar
    11    6   24 ar
    12    7    8 ar
    13    7   14 ar
    14    8   23 ar
    15    9   26 1
    16   10   11 ar
    17   10   29 1
    18   11   28 1
    19   12   13 ar
    20   12   30 1
    21   13   31 1
    22   14   24 ar
    23   14   26 1
    24   15   17 1
    25   15   25 1
    26   16   18 1
    27   16   25 1
    28   17   27 1
    29   18   27 1
    30   19   28 1
    31   20   21 1
    32   20   22 1
    33   21   25 1
    34   22   29 1
    35    1   32 1
    36    2   33 1
    37    3   34 1
    38    4   35 1
    39    5   36 1
    40    6   37 1
    41   15   38 1
    42   15   39 1
    43   16   40 1
    44   16   41 1
    45   17   42 1
    46   17   43 1
    47   18   44 1
    48   18   45 1
    49   19   46 1
    50   19   47 1
    51   19   48 1
    52   20   49 1
    53   20   50 1
    54   21   51 1
    55   21   52 1
    56   22   53 1
    57   22   54 1
    58   26   55 1
