@<TRIPOS>MOLECULE
4-(2,4-dichloro-5-methoxy-anilino)-6-methoxy-7-[3-(4-methylpiperazin-1-yl)propoxy]quinoline-3-carbonitrile
   65    68     0     0     0
SMALL
USER_CHARGES

@<TRIPOS>ATOM
      1 C1        -42.7108   -8.2338  -56.2210 C.1       1 MOL         0.4841
      2 C2        -42.4128  -12.9598  -57.8885 C.ar      1 MOL        -0.1500
      3 C3        -43.4732  -13.6859  -55.4407 C.ar      1 MOL        -0.1500
      4 C4        -40.0600   -8.6569  -57.7380 C.ar      1 MOL        -0.1500
      5 C5        -40.6132   -7.0029  -59.9102 C.ar      1 MOL        -0.1500
      6 C6        -43.3427  -10.1683  -54.9495 C.ar      1 MOL         0.1600
      7 C7        -42.8205   -9.6590  -56.1243 C.ar      1 MOL         0.0730
      8 C8        -42.6963  -11.9520  -56.9327 C.ar      1 MOL         0.0000
      9 C9        -43.2388  -12.3433  -55.6899 C.ar      1 MOL         0.3100
     10 C10       -41.0937   -9.0078  -58.6294 C.ar      1 MOL         0.1000
     11 C11       -42.4712  -10.5612  -57.1502 C.ar      1 MOL         0.1000
     12 C12       -42.6664  -14.3096  -57.6290 C.ar      1 MOL         0.0825
     13 C13       -43.1972  -14.6736  -56.3888 C.ar      1 MOL         0.0825
     14 C14       -39.3168   -7.4852  -57.9089 C.ar      1 MOL         0.0825
     15 C15       -41.3520   -8.1699  -59.7218 C.ar      1 MOL         0.1770
     16 C16       -39.6080   -6.6618  -59.0023 C.ar      1 MOL         0.1770
     17 C17       -46.5871  -21.5117  -54.4817 C.3       1 MOL         0.2700
     18 C18       -46.1657  -21.8722  -56.8252 C.3       1 MOL         0.2700
     19 C19       -46.2482  -20.0303  -54.6493 C.3       1 MOL         0.2700
     20 C20       -45.8292  -20.3886  -56.9930 C.3       1 MOL         0.2700
     21 C21       -47.4587  -23.4703  -55.5696 C.3       1 MOL         0.2700
     22 C22       -41.9209  -15.0049  -59.7877 C.3       1 MOL         0.2800
     23 C23       -38.2214   -7.7372  -55.8095 C.3       1 MOL         0.2800
     24 C24       -43.9548  -17.9373  -54.8565 C.3       1 MOL         0.0000
     25 C25       -44.9593  -18.4113  -55.9153 C.3       1 MOL         0.2700
     26 C26       -43.7848  -16.4221  -54.8815 C.3       1 MOL         0.2800
     27 N1        -42.6449   -7.0773  -56.2950 N.1       1 MOL        -0.5571
     28 N2        -43.5483  -11.4756  -54.7194 N.ar      1 MOL        -0.6200
     29 N3        -47.1238  -22.0598  -55.7310 N.3       1 MOL        -0.8100
     30 N4        -45.2853  -19.8331  -55.7452 N.3       1 MOL        -0.8100
     31 N5        -41.9004  -10.1355  -58.3782 N.pl3     1 MOL        -0.6000
     32 O1        -42.4359  -15.3390  -58.5053 O.3       1 MOL        -0.3625
     33 O2        -38.3210   -7.0703  -57.0635 O.3       1 MOL        -0.3625
     34 O3        -43.4170  -16.0128  -56.1963 O.3       1 MOL        -0.3625
     35 Cl1       -42.6148   -8.5332  -60.8442 Cl        1 MOL        -0.1770
     36 Cl2       -38.7548   -5.1817  -59.2552 Cl        1 MOL        -0.1770
     37 H1        -41.9953  -12.6696  -58.8482 H         1 MOL         0.1500
     38 H2        -43.8909  -13.9480  -54.4710 H         1 MOL         0.1500
     39 H3        -39.8656   -9.3153  -56.8943 H         1 MOL         0.1500
     40 H4        -40.8336   -6.3503  -60.7515 H         1 MOL         0.1500
     41 H5        -43.6301   -9.5190  -54.1276 H         1 MOL         0.1500
     42 H6        -45.6919  -22.0614  -54.1602 H         1 MOL         0.0000
     43 H7        -47.3329  -21.6058  -53.6831 H         1 MOL         0.0000
     44 H8        -46.5963  -22.2371  -57.7654 H         1 MOL         0.0000
     45 H9        -45.2446  -22.4433  -56.6446 H         1 MOL         0.0000
     46 H10       -47.1698  -19.4607  -54.8319 H         1 MOL         0.0000
     47 H11       -45.8345  -19.6762  -53.6996 H         1 MOL         0.0000
     48 H12       -45.0862  -20.2980  -57.7949 H         1 MOL         0.0000
     49 H13       -46.7234  -19.8358  -57.3115 H         1 MOL         0.0000
     50 H14       -47.8959  -23.8672  -56.4917 H         1 MOL         0.0000
     51 H15       -48.2112  -23.5937  -54.7834 H         1 MOL         0.0000
     52 H16       -46.5835  -24.0765  -55.3105 H         1 MOL         0.0000
     53 H17       -41.8272  -15.9331  -60.3597 H         1 MOL         0.0000
     54 H18       -40.9235  -14.5617  -59.7056 H         1 MOL         0.0000
     55 H19       -42.6068  -14.3479  -60.3325 H         1 MOL         0.0000
     56 H20       -37.5007   -7.1884  -55.1960 H         1 MOL         0.0000
     57 H21       -37.8425   -8.7558  -55.9404 H         1 MOL         0.0000
     58 H22       -39.1777   -7.7346  -55.2744 H         1 MOL         0.0000
     59 H23       -44.2608  -18.2231  -53.8455 H         1 MOL         0.0000
     60 H24       -42.9875  -18.4167  -55.0532 H         1 MOL         0.0000
     61 H25       -45.8666  -17.7935  -55.9046 H         1 MOL         0.0000
     62 H26       -44.4922  -18.2593  -56.8974 H         1 MOL         0.0000
     63 H27       -44.7356  -15.9610  -54.5883 H         1 MOL         0.0000
     64 H28       -42.9988  -16.1434  -54.1693 H         1 MOL         0.0000
     65 H29       -42.2655  -10.5939  -59.2059 H         1 MOL         0.4000
@<TRIPOS>BOND
     1    1    7 1
     2    1   27 3
     3    2    8 ar
     4    2   12 ar
     5    3    9 ar
     6    3   13 ar
     7    4   10 ar
     8    4   14 ar
     9    5   15 ar
    10    5   16 ar
    11    6    7 ar
    12    6   28 ar
    13    7   11 ar
    14    8    9 ar
    15    8   11 ar
    16    9   28 ar
    17   10   15 ar
    18   10   31 1
    19   11   31 1
    20   12   13 ar
    21   12   32 1
    22   13   34 1
    23   14   16 ar
    24   14   33 1
    25   15   35 1
    26   16   36 1
    27   17   19 1
    28   17   29 1
    29   18   20 1
    30   18   29 1
    31   19   30 1
    32   20   30 1
    33   21   29 1
    34   22   32 1
    35   23   33 1
    36   24   25 1
    37   24   26 1
    38   25   30 1
    39   26   34 1
    40    2   37 1
    41    3   38 1
    42    4   39 1
    43    5   40 1
    44    6   41 1
    45   17   42 1
    46   17   43 1
    47   18   44 1
    48   18   45 1
    49   19   46 1
    50   19   47 1
    51   20   48 1
    52   20   49 1
    53   21   50 1
    54   21   51 1
    55   21   52 1
    56   22   53 1
    57   22   54 1
    58   22   55 1
    59   23   56 1
    60   23   57 1
    61   23   58 1
    62   24   59 1
    63   24   60 1
    64   25   61 1
    65   25   62 1
    66   26   63 1
    67   26   64 1
    68   31   65 1
