@<TRIPOS>MOLECULE
~{N}-(2-chloro-6-methyl-phenyl)-2-[[6-[4-(2-hydroxyethyl)piperazin-1-yl]-2-methyl-pyrimidin-4-yl]amino]thiazole-5-carboxamide
   59    62     0     0     0
SMALL
USER_CHARGES

@<TRIPOS>ATOM
      1 C1        -44.5448  -19.6704  -54.7827 C.ar      1 MOL        -0.1287
      2 C2        -45.1946  -19.0598  -55.8554 C.ar      1 MOL        -0.1206
      3 C3        -43.4510  -19.0462  -54.1831 C.ar      1 MOL        -0.1156
      4 C4        -41.5717   -9.6954  -59.6436 C.ar      1 MOL        -0.4498
      5 C5        -42.2976  -13.5535  -57.6743 C.2       1 MOL         0.4038
      6 C6        -44.7504  -17.8251  -56.3285 C.ar      1 MOL        -0.0505
      7 C7        -43.6565  -17.2009  -55.7289 C.ar      1 MOL         0.0591
      8 C8        -43.0068  -17.8115  -54.6562 C.ar      1 MOL        -0.0121
      9 C9        -42.6652  -13.6028  -56.3459 C.2       1 MOL        -0.3015
     10 C10       -41.1003   -8.9138  -60.6786 C.ar      1 MOL         0.6913
     11 C11       -41.1792   -9.3101  -58.3780 C.ar      1 MOL         0.7029
     12 C12       -39.9940   -7.5639  -59.2223 C.ar      1 MOL         0.6974
     13 C13       -41.9724  -11.4455  -57.1637 C.2       1 MOL         0.6643
     14 C14       -43.1175  -14.7000  -55.5588 C.2       1 MOL         0.7225
     15 C15       -41.7333  -10.6780  -62.3002 C.3       1 MOL         0.2004
     16 C16       -40.9866   -8.4447  -63.0894 C.3       1 MOL         0.2004
     17 C17       -42.5916  -10.7920  -63.5626 C.3       1 MOL         0.1686
     18 C18       -41.8697   -8.6303  -64.3255 C.3       1 MOL         0.1686
     19 C19       -45.4689  -17.1971  -57.4789 C.3       1 MOL        -0.0586
     20 C20       -39.1180   -6.3802  -58.9883 C.3       1 MOL        -0.1352
     21 C21       -42.7912  -10.2112  -65.8913 C.3       1 MOL         0.1713
     22 C22       -41.9342   -9.9177  -67.1090 C.3       1 MOL         0.1287
     23 N1        -41.9004  -12.3172  -58.1451 N.2       1 MOL        -0.6461
     24 N2        -40.3067   -7.8369  -60.5034 N.ar      1 MOL        -0.7652
     25 N3        -40.3879   -8.2459  -58.1299 N.ar      1 MOL        -0.7141
     26 N4        -41.4754   -9.2711  -61.9785 N.pl3     1 MOL        -0.7666
     27 N5        -41.9908  -10.0504  -64.6779 N.3       1 MOL        -0.7440
     28 N6        -43.2132  -15.9479  -56.2223 N.am      1 MOL        -0.4686
     29 N7        -41.6415  -10.0863  -57.2870 N.pl3     1 MOL        -0.8342
     30 O1        -43.4505  -14.5833  -54.3544 O.2       1 MOL        -0.5936
     31 O2        -42.7064  -10.1098  -68.2874 O.3       1 MOL        -0.6052
     32 S1        -42.5093  -12.0441  -55.6476 S.3       1 MOL        -0.0611
     33 Cl1       -41.6473  -17.0773  -53.8823 Cl        1 MOL        -0.1016
     34 H1        -44.8914  -20.6314  -54.4138 H         1 MOL         0.1385
     35 H2        -46.0453  -19.5550  -56.3163 H         1 MOL         0.1378
     36 H3        -42.9546  -19.5368  -53.3495 H         1 MOL         0.1483
     37 H4        -42.2087  -10.5559  -59.8136 H         1 MOL         0.1533
     38 H5        -42.3004  -14.3968  -58.3526 H         1 MOL         0.0463
     39 H6        -42.2594  -11.1654  -61.4699 H         1 MOL         0.0520
     40 H7        -40.7819  -11.2063  -62.4470 H         1 MOL         0.0520
     41 H8        -39.9498   -8.7181  -63.3267 H         1 MOL         0.0520
     42 H9        -40.9942   -7.3853  -62.8042 H         1 MOL         0.0520
     43 H10       -42.6795  -11.8542  -63.8214 H         1 MOL         0.0406
     44 H11       -43.6045  -10.4224  -63.3524 H         1 MOL         0.0406
     45 H12       -42.8596   -8.1919  -64.1395 H         1 MOL         0.0406
     46 H13       -41.4176   -8.0739  -65.1556 H         1 MOL         0.0406
     47 H14       -46.2824  -16.5597  -57.1149 H         1 MOL         0.0550
     48 H15       -44.7884  -16.5859  -58.0838 H         1 MOL         0.0550
     49 H16       -45.8917  -17.9595  -58.1444 H         1 MOL         0.0550
     50 H17       -39.7247   -5.4763  -58.8535 H         1 MOL         0.0649
     51 H18       -38.4937   -6.5163  -58.0955 H         1 MOL         0.0649
     52 H19       -38.4341   -6.2174  -59.8317 H         1 MOL         0.0649
     53 H20       -43.6444   -9.5280  -65.8324 H         1 MOL         0.0481
     54 H21       -43.1587  -11.2413  -65.9235 H         1 MOL         0.0481
     55 H22       -41.0854  -10.6077  -67.1451 H         1 MOL         0.0292
     56 H23       -41.5581   -8.8895  -67.0983 H         1 MOL         0.0292
     57 H24       -42.9208  -15.9445  -57.1964 H         1 MOL         0.3237
     58 H25       -41.7537   -9.5512  -56.4338 H         1 MOL         0.4580
     59 H26       -42.1240   -9.9128  -69.0385 H         1 MOL         0.4026
@<TRIPOS>BOND
     1    1    2 ar
     2    1    3 ar
     3    2    6 ar
     4    3    8 ar
     5    4   10 ar
     6    4   11 ar
     7    5    9 2
     8    5   23 1
     9    6    7 ar
    10    6   19 1
    11    7    8 ar
    12    7   28 1
    13    8   33 1
    14    9   14 1
    15    9   32 1
    16   10   24 ar
    17   10   26 1
    18   11   25 ar
    19   11   29 1
    20   12   20 1
    21   12   24 ar
    22   12   25 ar
    23   13   23 2
    24   13   29 1
    25   13   32 1
    26   14   28 am
    27   14   30 2
    28   15   17 1
    29   15   26 1
    30   16   18 1
    31   16   26 1
    32   17   27 1
    33   18   27 1
    34   21   22 1
    35   21   27 1
    36   22   31 1
    37    1   34 1
    38    2   35 1
    39    3   36 1
    40    4   37 1
    41    5   38 1
    42   15   39 1
    43   15   40 1
    44   16   41 1
    45   16   42 1
    46   17   43 1
    47   17   44 1
    48   18   45 1
    49   18   46 1
    50   19   47 1
    51   19   48 1
    52   19   49 1
    53   20   50 1
    54   20   51 1
    55   20   52 1
    56   21   53 1
    57   21   54 1
    58   22   55 1
    59   22   56 1
    60   28   57 1
    61   29   58 1
    62   31   59 1
