@<TRIPOS>MOLECULE
~{N}-methyl-2-[[3-[(~{E})-2-(2-pyridyl)vinyl]-1~{H}-indazol-6-yl]sulfanyl]benzamide
   46    49     0     0     0
SMALL
USER_CHARGES

@<TRIPOS>ATOM
      1 C1        -50.2325  -21.0089  -54.8933 C.ar      1 MOL        -0.1467
      2 C2        -49.1810  -21.5822  -54.1784 C.ar      1 MOL        -0.0974
      3 C3        -42.0506  -11.2074  -56.9004 C.ar      1 MOL        -0.0928
      4 C4        -42.4673  -10.1493  -56.1004 C.ar      1 MOL        -0.2453
      5 C5        -44.8230  -17.6403  -56.8862 C.ar      1 MOL        -0.0799
      6 C6        -50.0314  -20.5791  -56.2051 C.ar      1 MOL        -0.0939
      7 C7        -47.9284  -21.7258  -54.7750 C.ar      1 MOL        -0.1576
      8 C8        -45.4202  -18.8648  -57.2109 C.ar      1 MOL        -0.1081
      9 C9        -42.2305  -12.5150  -56.4632 C.ar      1 MOL        -0.2368
     10 C10       -44.6368  -19.8706  -55.1366 C.ar      1 MOL        -0.0800
     11 C11       -43.0537  -10.4496  -54.8815 C.ar      1 MOL         0.3986
     12 C12       -44.1255  -17.5351  -55.6713 C.ar      1 MOL        -0.1733
     13 C13       -48.7788  -20.7226  -56.8017 C.ar      1 MOL        -0.1327
     14 C14       -44.0485  -18.6410  -54.8321 C.ar      1 MOL         0.0548
     15 C15       -45.3274  -19.9598  -56.3496 C.ar      1 MOL        -0.0350
     16 C16       -47.7273  -21.2960  -56.0867 C.ar      1 MOL         0.0286
     17 C17       -42.8274  -12.7094  -55.2280 C.ar      1 MOL         0.4459
     18 C18       -43.4088  -16.5282  -54.9896 C.2       1 MOL         0.3775
     19 C19       -43.0407  -14.0764  -54.7207 C.2       1 MOL        -0.1979
     20 C20       -43.2220  -15.2087  -55.4786 C.2       1 MOL        -0.1776
     21 C21       -48.6251  -20.2557  -58.1751 C.2       1 MOL         0.6672
     22 C22       -48.7842  -18.2928  -59.7205 C.3       1 MOL         0.0802
     23 N1        -43.2452  -11.7069  -54.4231 N.ar      1 MOL        -0.6566
     24 N2        -42.9153  -16.9439  -53.8210 N.2       1 MOL        -0.3948
     25 N3        -43.3176  -18.2239  -53.7525 N.pl3     1 MOL        -0.3861
     26 N4        -48.8714  -18.9003  -58.4121 N.am      1 MOL        -0.5743
     27 O1        -48.3100  -21.0500  -59.0758 O.2       1 MOL        -0.5831
     28 S1        -46.1037  -21.5038  -56.8014 S.3       1 MOL        -0.0864
     29 H1        -51.2075  -20.8960  -54.4281 H         1 MOL         0.1379
     30 H2        -49.3374  -21.9159  -53.1567 H         1 MOL         0.1360
     31 H3        -41.5876  -11.0128  -57.8632 H         1 MOL         0.1387
     32 H4        -42.3364   -9.1222  -56.4209 H         1 MOL         0.1440
     33 H5        -44.9040  -16.7979  -57.5666 H         1 MOL         0.1450
     34 H6        -50.8594  -20.1332  -56.7509 H         1 MOL         0.1409
     35 H7        -47.1227  -22.1740  -54.1987 H         1 MOL         0.1467
     36 H8        -45.9596  -18.9430  -58.1527 H         1 MOL         0.1542
     37 H9        -41.9079  -13.3460  -57.0824 H         1 MOL         0.1438
     38 H10       -44.5542  -20.7108  -54.4546 H         1 MOL         0.1523
     39 H11       -43.3947   -9.6604  -54.2195 H         1 MOL         0.0235
     40 H12       -43.0177  -14.1745  -53.6380 H         1 MOL         0.1617
     41 H13       -43.1879  -15.0684  -56.5805 H         1 MOL         0.1330
     42 H14       -47.7906  -17.8622  -59.8694 H         1 MOL         0.0431
     43 H15       -49.5300  -17.4993  -59.8193 H         1 MOL         0.0431
     44 H16       -48.9635  -19.0409  -60.4974 H         1 MOL         0.0431
     45 H17       -43.0582  -18.7632  -52.9359 H         1 MOL         0.4865
     46 H18       -49.1873  -18.3103  -57.6494 H         1 MOL         0.3101
@<TRIPOS>BOND
     1    1    2 ar
     2    1    6 ar
     3    2    7 ar
     4    3    4 ar
     5    3    9 ar
     6    4   11 ar
     7    5    8 ar
     8    5   12 ar
     9    6   13 ar
    10    7   16 ar
    11    8   15 ar
    12    9   17 ar
    13   10   14 ar
    14   10   15 ar
    15   11   23 ar
    16   12   14 ar
    17   12   18 1
    18   13   16 ar
    19   13   21 1
    20   14   25 1
    21   15   28 1
    22   16   28 1
    23   17   19 1
    24   17   23 ar
    25   18   20 1
    26   18   24 2
    27   19   20 2
    28   21   26 am
    29   21   27 2
    30   22   26 1
    31   24   25 1
    32    1   29 1
    33    2   30 1
    34    3   31 1
    35    4   32 1
    36    5   33 1
    37    6   34 1
    38    7   35 1
    39    8   36 1
    40    9   37 1
    41   10   38 1
    42   11   39 1
    43   19   40 1
    44   20   41 1
    45   22   42 1
    46   22   43 1
    47   22   44 1
    48   25   45 1
    49   26   46 1
