@<TRIPOS>MOLECULE
~{N}-(3-chloro-4-fluoro-phenyl)-7-methoxy-6-(3-morpholinopropoxy)quinazolin-4-amine
   55    58     0     0     0
SMALL
USER_CHARGES

@<TRIPOS>ATOM
      1 C1        -40.3609    0.9041  -63.9080 C.ar      1 MOL        -0.0786
      2 C2        -39.1812    1.4585  -64.4047 C.ar      1 MOL        -0.1504
      3 C3        -44.0231   -0.3219  -60.9272 C.ar      1 MOL        -0.1130
      4 C4        -46.2330    0.9064  -59.7764 C.ar      1 MOL        -0.1819
      5 C5        -41.1216    3.1036  -63.2595 C.ar      1 MOL        -0.1435
      6 C6        -45.0572    3.4982  -61.9572 C.ar      1 MOL         0.6680
      7 C7        -44.3742    0.9915  -61.2849 C.ar      1 MOL        -0.2849
      8 C8        -45.4891    1.6235  -60.7103 C.ar      1 MOL         0.4333
      9 C9        -41.3311    1.7267  -63.3355 C.ar      1 MOL         0.1157
     10 C10       -44.7842   -1.0150  -59.9911 C.ar      1 MOL         0.0877
     11 C11       -45.8903   -0.4000  -59.4154 C.ar      1 MOL         0.0950
     12 C12       -38.9717    2.8355  -64.3287 C.ar      1 MOL         0.1283
     13 C13       -39.9419    3.6581  -63.7561 C.ar      1 MOL        -0.0096
     14 C14       -43.6558    1.7395  -62.2135 C.ar      1 MOL         0.6927
     15 C15       -42.0956   -6.1006  -56.6914 C.3       1 MOL         0.1373
     16 C16       -39.9595   -6.0029  -57.7986 C.3       1 MOL         0.1373
     17 C17       -41.8653   -7.5881  -56.4400 C.3       1 MOL         0.1276
     18 C18       -39.7800   -7.4929  -57.5221 C.3       1 MOL         0.1276
     19 C19       -46.2752   -0.9230  -57.1276 C.3       1 MOL         0.1191
     20 C20       -42.9413   -3.9611  -58.7944 C.3       1 MOL        -0.0919
     21 C21       -41.5867   -4.2600  -58.1658 C.3       1 MOL         0.1801
     22 C22       -43.1455   -2.4782  -59.0803 C.3       1 MOL         0.1312
     23 N1        -45.8338    2.8792  -61.0449 N.ar      1 MOL        -0.7055
     24 N2        -43.9730    2.9980  -62.5715 N.ar      1 MOL        -0.7528
     25 N3        -41.3898   -5.6857  -57.9118 N.3       1 MOL        -0.7374
     26 N4        -42.5180    1.1680  -62.8356 N.pl3     1 MOL        -0.7173
     27 O1        -40.4685   -7.8632  -56.3270 O.3       1 MOL        -0.4163
     28 O2        -46.6499   -1.0600  -58.4967 O.3       1 MOL        -0.3500
     29 O3        -44.4362   -2.2952  -59.6470 O.3       1 MOL        -0.3428
     30 F1        -37.8326    3.3536  -64.8099 F         1 MOL        -0.1242
     31 Cl1       -39.6885    5.3580  -63.6577 Cl        1 MOL        -0.0642
     32 H1        -40.5146   -0.1702  -63.9731 H         1 MOL         0.1696
     33 H2        -38.4260    0.8177  -64.8500 H         1 MOL         0.1585
     34 H3        -43.1616   -0.8185  -61.3673 H         1 MOL         0.1459
     35 H4        -47.1027    1.3714  -59.3146 H         1 MOL         0.1707
     36 H5        -41.8805    3.7416  -62.8118 H         1 MOL         0.1514
     37 H6        -45.3403    4.5096  -62.2224 H         1 MOL         0.0566
     38 H7        -43.1716   -5.9191  -56.7943 H         1 MOL         0.0402
     39 H8        -41.7342   -5.5251  -55.8292 H         1 MOL         0.0402
     40 H9        -39.5045   -5.4233  -56.9848 H         1 MOL         0.0402
     41 H10       -39.4389   -5.7493  -58.7291 H         1 MOL         0.0402
     42 H11       -42.3405   -7.8841  -55.4992 H         1 MOL         0.0537
     43 H12       -42.2966   -8.2042  -57.2381 H         1 MOL         0.0537
     44 H13       -40.1403   -8.1066  -58.3570 H         1 MOL         0.0537
     45 H14       -38.7190   -7.7204  -57.3785 H         1 MOL         0.0537
     46 H15       -46.9618   -1.4984  -56.5018 H         1 MOL         0.0460
     47 H16       -46.3048    0.1322  -56.8446 H         1 MOL         0.0460
     48 H17       -45.2599   -1.3049  -56.9970 H         1 MOL         0.0460
     49 H18       -43.0359   -4.5203  -59.7336 H         1 MOL         0.0611
     50 H19       -43.7515   -4.3214  -58.1480 H         1 MOL         0.0611
     51 H20       -40.7824   -3.9415  -58.8361 H         1 MOL         0.0341
     52 H21       -41.4689   -3.7312  -57.2145 H         1 MOL         0.0341
     53 H22       -43.0849   -1.8850  -58.1626 H         1 MOL         0.0501
     54 H23       -42.3986   -2.1119  -59.7919 H         1 MOL         0.0501
     55 H24       -42.5793    0.1617  -62.9349 H         1 MOL         0.4263
@<TRIPOS>BOND
     1    1    2 ar
     2    1    9 ar
     3    2   12 ar
     4    3    7 ar
     5    3   10 ar
     6    4    8 ar
     7    4   11 ar
     8    5    9 ar
     9    5   13 ar
    10    6   23 ar
    11    6   24 ar
    12    7    8 ar
    13    7   14 ar
    14    8   23 ar
    15    9   26 1
    16   10   11 ar
    17   10   29 1
    18   11   28 1
    19   12   13 ar
    20   12   30 1
    21   13   31 1
    22   14   24 ar
    23   14   26 1
    24   15   17 1
    25   15   25 1
    26   16   18 1
    27   16   25 1
    28   17   27 1
    29   18   27 1
    30   19   28 1
    31   20   21 1
    32   20   22 1
    33   21   25 1
    34   22   29 1
    35    1   32 1
    36    2   33 1
    37    3   34 1
    38    4   35 1
    39    5   36 1
    40    6   37 1
    41   15   38 1
    42   15   39 1
    43   16   40 1
    44   16   41 1
    45   17   42 1
    46   17   43 1
    47   18   44 1
    48   18   45 1
    49   19   46 1
    50   19   47 1
    51   19   48 1
    52   20   49 1
    53   20   50 1
    54   21   51 1
    55   21   52 1
    56   22   53 1
    57   22   54 1
    58   26   55 1
