@<TRIPOS>MOLECULE
4-[(4-methylpiperazin-1-yl)methyl]-~{N}-[4-methyl-3-[[4-(3-pyridyl)pyrimidin-2-yl]amino]phenyl]benzamide
   68    72     0     0     0
SMALL
USER_CHARGES

@<TRIPOS>ATOM
      1 C1        -43.6707  -14.2267  -56.8517 C.ar      1 MOL        -0.2506
      2 C2        -43.0946  -13.2466  -57.6521 C.ar      1 MOL        -0.0711
      3 C3        -44.0192   -3.2050  -60.5131 C.ar      1 MOL        -0.0933
      4 C4        -42.5639   -1.7273  -59.2741 C.ar      1 MOL        -0.0933
      5 C5        -44.7058   -2.1025  -61.0217 C.ar      1 MOL        -0.1271
      6 C6        -43.2504   -0.6247  -59.7827 C.ar      1 MOL        -0.1271
      7 C7        -37.6973   -5.3013  -57.4710 C.ar      1 MOL        -0.0880
      8 C8        -38.6416   -4.4022  -57.9663 C.ar      1 MOL        -0.1675
      9 C9        -42.4157  -10.8563  -59.2206 C.ar      1 MOL        -0.4095
     10 C10       -40.2831   -6.1729  -58.0510 C.ar      1 MOL        -0.1860
     11 C11       -43.8171  -13.9574  -55.5005 C.ar      1 MOL         0.4040
     12 C12       -41.7723   -9.8302  -59.8819 C.ar      1 MOL         0.4616
     13 C13       -42.8786  -11.8722  -55.7232 C.ar      1 MOL         0.4307
     14 C14       -42.6881  -12.0440  -57.0848 C.ar      1 MOL        -0.2733
     15 C15       -42.9483   -3.0174  -59.6393 C.ar      1 MOL        -0.1523
     16 C16       -44.3214   -0.8124  -60.6565 C.ar      1 MOL        -0.0603
     17 C17       -38.0458   -6.6362  -57.2657 C.ar      1 MOL        -0.1448
     18 C18       -39.9345   -4.8380  -58.2563 C.ar      1 MOL         0.0847
     19 C19       -39.3387   -7.0720  -57.5557 C.ar      1 MOL         0.1772
     20 C20       -42.0864  -11.0075  -57.8890 C.ar      1 MOL         0.5363
     21 C21       -40.6391   -9.2580  -57.9963 C.ar      1 MOL         0.8872
     22 C22       -42.2314   -4.1663  -59.1088 C.2       1 MOL         0.6835
     23 C23       -45.3727    1.7395  -64.7099 C.3       1 MOL         0.1708
     24 C24       -43.0321    1.5800  -64.1508 C.3       1 MOL         0.1708
     25 C25       -45.7405    1.4577  -63.2491 C.3       1 MOL         0.1753
     26 C26       -43.4005    1.2996  -62.6899 C.3       1 MOL         0.1753
     27 C27       -37.0145   -7.5775  -56.7339 C.3       1 MOL        -0.0528
     28 C28       -43.7124    2.6613  -66.1963 C.3       1 MOL         0.1609
     29 C29       -45.0600    0.3741  -61.2051 C.3       1 MOL         0.2165
     30 N1        -43.4345  -12.8012  -54.9135 N.ar      1 MOL        -0.6654
     31 N2        -40.8749   -9.0088  -59.2985 N.ar      1 MOL        -0.7391
     32 N3        -41.1989  -10.2234  -57.2426 N.ar      1 MOL        -0.7480
     33 N4        -44.0634    2.3970  -64.8023 N.3       1 MOL        -0.7397
     34 N5        -44.7090    0.6405  -62.5986 N.3       1 MOL        -0.7459
     35 N6        -39.7082   -8.4203  -57.3547 N.pl3     1 MOL        -0.7209
     36 N7        -40.8937   -3.9236  -58.7602 N.am      1 MOL        -0.4687
     37 O1        -42.7664   -5.2794  -59.0111 O.2       1 MOL        -0.5862
     38 H1        -43.9960  -15.1716  -57.2717 H         1 MOL         0.1463
     39 H2        -42.9685  -13.4337  -58.7156 H         1 MOL         0.1439
     40 H3        -44.3267   -4.2062  -60.8040 H         1 MOL         0.1467
     41 H4        -41.7310   -1.5691  -58.5939 H         1 MOL         0.1467
     42 H5        -45.5388   -2.2579  -61.7021 H         1 MOL         0.1452
     43 H6        -42.9438    0.3770  -59.4932 H         1 MOL         0.1452
     44 H7        -36.6926   -4.9521  -57.2477 H         1 MOL         0.1366
     45 H8        -38.3595   -3.3639  -58.1223 H         1 MOL         0.1760
     46 H9        -43.1301  -11.4934  -59.7270 H         1 MOL         0.1589
     47 H10       -41.2916   -6.5126  -58.2776 H         1 MOL         0.1531
     48 H11       -44.2605  -14.6896  -54.8333 H         1 MOL         0.0247
     49 H12       -41.9664   -9.6343  -60.9311 H         1 MOL         0.0273
     50 H13       -42.5840  -10.9559  -55.2195 H         1 MOL         0.0334
     51 H14       -45.3806    0.8005  -65.2801 H         1 MOL         0.0372
     52 H15       -46.1446    2.3887  -65.1407 H         1 MOL         0.0372
     53 H16       -42.0728    2.1114  -64.1684 H         1 MOL         0.0372
     54 H17       -42.8893    0.6305  -64.6844 H         1 MOL         0.0372
     55 H18       -45.8834    2.4069  -62.7147 H         1 MOL         0.0379
     56 H19       -46.6998    0.9263  -63.2316 H         1 MOL         0.0379
     57 H20       -42.6282    0.6512  -62.2583 H         1 MOL         0.0379
     58 H21       -43.3939    2.2390  -62.1204 H         1 MOL         0.0379
     59 H22       -37.0439   -7.5928  -55.6385 H         1 MOL         0.0437
     60 H23       -37.1812   -8.5968  -57.1028 H         1 MOL         0.0437
     61 H24       -36.0074   -7.2827  -57.0532 H         1 MOL         0.0437
     62 H25       -42.7365    3.1505  -66.2517 H         1 MOL         0.0323
     63 H26       -44.4595    3.3132  -66.6571 H         1 MOL         0.0323
     64 H27       -43.6692    1.7250  -66.7592 H         1 MOL         0.0323
     65 H28       -46.1423    0.2121  -61.1549 H         1 MOL         0.0434
     66 H29       -44.8391    1.2767  -60.6258 H         1 MOL         0.0434
     67 H30       -39.2023   -8.8701  -56.5985 H         1 MOL         0.4542
     68 H31       -40.5704   -2.9676  -58.8854 H         1 MOL         0.3224
@<TRIPOS>BOND
     1    1    2 ar
     2    1   11 ar
     3    2   14 ar
     4    3    5 ar
     5    3   15 ar
     6    4    6 ar
     7    4   15 ar
     8    5   16 ar
     9    6   16 ar
    10    7    8 ar
    11    7   17 ar
    12    8   18 ar
    13    9   12 ar
    14    9   20 ar
    15   10   18 ar
    16   10   19 ar
    17   11   30 ar
    18   12   31 ar
    19   13   14 ar
    20   13   30 ar
    21   14   20 1
    22   15   22 1
    23   16   29 1
    24   17   19 ar
    25   17   27 1
    26   18   36 1
    27   19   35 1
    28   20   32 ar
    29   21   31 ar
    30   21   32 ar
    31   21   35 1
    32   22   36 am
    33   22   37 2
    34   23   25 1
    35   23   33 1
    36   24   26 1
    37   24   33 1
    38   25   34 1
    39   26   34 1
    40   28   33 1
    41   29   34 1
    42    1   38 1
    43    2   39 1
    44    3   40 1
    45    4   41 1
    46    5   42 1
    47    6   43 1
    48    7   44 1
    49    8   45 1
    50    9   46 1
    51   10   47 1
    52   11   48 1
    53   12   49 1
    54   13   50 1
    55   23   51 1
    56   23   52 1
    57   24   53 1
    58   24   54 1
    59   25   55 1
    60   25   56 1
    61   26   57 1
    62   26   58 1
    63   27   59 1
    64   27   60 1
    65   27   61 1
    66   28   62 1
    67   28   63 1
    68   28   64 1
    69   29   65 1
    70   29   66 1
    71   35   67 1
    72   36   68 1
