@<TRIPOS>MOLECULE
~{N}-(2-chloro-6-methyl-phenyl)-2-[[6-[4-(2-hydroxyethyl)piperazin-1-yl]-2-methyl-pyrimidin-4-yl]amino]thiazole-5-carboxamide
   59    62     0     0     0
SMALL
USER_CHARGES

@<TRIPOS>ATOM
      1 C1        -39.6401   -4.4131  -58.2625 C.ar      1 MOL        -0.1500
      2 C2        -38.8604   -5.2798  -57.4959 C.ar      1 MOL        -0.1500
      3 C3        -41.0085   -4.6339  -58.3948 C.ar      1 MOL        -0.1500
      4 C4        -43.8130  -15.8031  -56.2865 C.ar      1 MOL        -0.1500
      5 C5        -42.8312  -10.0552  -55.1160 C.2       1 MOL         0.0772
      6 C6        -39.4376   -6.3785  -56.8445 C.ar      1 MOL        -0.1435
      7 C7        -40.8191   -6.6010  -56.9853 C.ar      1 MOL         0.1170
      8 C8        -41.6000   -5.7279  -57.7614 C.ar      1 MOL         0.1770
      9 C9        -42.2519   -9.9667  -56.3613 C.2       1 MOL        -0.0450
     10 C10       -43.7864  -16.8132  -57.2531 C.ar      1 MOL         0.4100
     11 C11       -43.3391  -14.5273  -56.6081 C.ar      1 MOL         0.4100
     12 C12       -42.8484  -15.2832  -58.7282 C.ar      1 MOL         0.4765
     13 C13       -43.0394  -12.2028  -55.7013 C.2       1 MOL         0.4621
     14 C14       -41.6990   -8.8580  -57.1104 C.2       1 MOL         0.7150
     15 C15       -44.6357  -18.5659  -55.6734 C.3       1 MOL         0.3691
     16 C16       -43.9125  -19.1398  -57.9877 C.3       1 MOL         0.3691
     17 C17       -45.6344  -19.7234  -55.7607 C.3       1 MOL         0.2700
     18 C18       -44.9347  -20.2730  -57.9829 C.3       1 MOL         0.2700
     19 C19       -38.5692   -7.3128  -56.0501 C.3       1 MOL         0.1435
     20 C20       -42.3227  -14.9870  -60.0945 C.3       1 MOL         0.1435
     21 C21       -46.0189  -21.9626  -56.6432 C.3       1 MOL         0.2700
     22 C22       -45.8755  -22.7964  -55.3734 C.3       1 MOL         0.2800
     23 N1        -43.2726  -11.3168  -54.7475 N.2       1 MOL        -0.5653
     24 N2        -43.2940  -16.5256  -58.4843 N.ar      1 MOL        -0.6200
     25 N3        -42.8558  -14.2776  -57.8422 N.ar      1 MOL        -0.6200
     26 N4        -44.2673  -18.1027  -57.0109 N.pl3     1 MOL        -0.8382
     27 N5        -45.1251  -20.7947  -56.6262 N.3       1 MOL        -0.8100
     28 N6        -41.4030   -7.7238  -56.3561 N.am      1 MOL        -0.5470
     29 N7        -43.3949  -13.5197  -55.6036 N.pl3     1 MOL        -0.5840
     30 O1        -41.4680   -8.9266  -58.3194 O.2       1 MOL        -0.5700
     31 O2        -44.5232  -23.2168  -55.2427 O.3       1 MOL        -0.6800
     32 S1        -42.2494  -11.5120  -57.0770 S.3       1 MOL        -0.0800
     33 Cl1       -43.3047   -5.9513  -57.9513 Cl        1 MOL        -0.1770
     34 H1        -39.1777   -3.5658  -58.7604 H         1 MOL         0.1500
     35 H2        -37.7926   -5.0929  -57.4168 H         1 MOL         0.1500
     36 H3        -41.5999   -3.9479  -58.9956 H         1 MOL         0.1500
     37 H4        -44.1977  -15.9750  -55.2870 H         1 MOL         0.1500
     38 H5        -42.9781   -9.2345  -54.4261 H         1 MOL         0.1500
     39 H6        -45.1238  -17.7851  -55.0827 H         1 MOL         0.0000
     40 H7        -43.7336  -18.8815  -55.1342 H         1 MOL         0.0000
     41 H8        -42.9134  -19.5283  -57.7514 H         1 MOL         0.0000
     42 H9        -43.8789  -18.7521  -59.0127 H         1 MOL         0.0000
     43 H10       -45.8078  -20.0874  -54.7428 H         1 MOL         0.0000
     44 H11       -46.5959  -19.3479  -56.1377 H         1 MOL         0.0000
     45 H12       -45.8854  -19.9202  -58.4040 H         1 MOL         0.0000
     46 H13       -44.5582  -21.0635  -58.6437 H         1 MOL         0.0000
     47 H14       -38.9216   -7.3803  -55.0166 H         1 MOL         0.0000
     48 H15       -38.5786   -8.3098  -56.5043 H         1 MOL         0.0000
     49 H16       -37.5292   -6.9721  -56.0263 H         1 MOL         0.0000
     50 H17       -43.0137  -14.3198  -60.6180 H         1 MOL         0.0000
     51 H18       -41.3447  -14.5014  -60.0253 H         1 MOL         0.0000
     52 H19       -42.2119  -15.9044  -60.6804 H         1 MOL         0.0000
     53 H20       -45.7405  -22.6124  -57.4832 H         1 MOL         0.0000
     54 H21       -47.0643  -21.6676  -56.7946 H         1 MOL         0.0000
     55 H22       -46.5046  -23.6893  -55.4438 H         1 MOL         0.0000
     56 H23       -46.1660  -22.2432  -54.4758 H         1 MOL         0.0000
     57 H24       -41.3040   -7.8048  -55.3478 H         1 MOL         0.3700
     58 H25       -43.8368  -13.8260  -54.7407 H         1 MOL         0.4000
     59 H26       -44.4516  -23.6936  -54.3994 H         1 MOL         0.4000
@<TRIPOS>BOND
     1    1    2 ar
     2    1    3 ar
     3    2    6 ar
     4    3    8 ar
     5    4   10 ar
     6    4   11 ar
     7    5    9 2
     8    5   23 1
     9    6    7 ar
    10    6   19 1
    11    7    8 ar
    12    7   28 1
    13    8   33 1
    14    9   14 1
    15    9   32 1
    16   10   24 ar
    17   10   26 1
    18   11   25 ar
    19   11   29 1
    20   12   20 1
    21   12   24 ar
    22   12   25 ar
    23   13   23 2
    24   13   29 1
    25   13   32 1
    26   14   28 am
    27   14   30 2
    28   15   17 1
    29   15   26 1
    30   16   18 1
    31   16   26 1
    32   17   27 1
    33   18   27 1
    34   21   22 1
    35   21   27 1
    36   22   31 1
    37    1   34 1
    38    2   35 1
    39    3   36 1
    40    4   37 1
    41    5   38 1
    42   15   39 1
    43   15   40 1
    44   16   41 1
    45   16   42 1
    46   17   43 1
    47   17   44 1
    48   18   45 1
    49   18   46 1
    50   19   47 1
    51   19   48 1
    52   19   49 1
    53   20   50 1
    54   20   51 1
    55   20   52 1
    56   21   53 1
    57   21   54 1
    58   22   55 1
    59   22   56 1
    60   28   57 1
    61   29   58 1
    62   31   59 1
