@<TRIPOS>MOLECULE
~{N}-(3-ethynylphenyl)-6,7-bis(2-methoxyethoxy)quinazolin-4-amine
   52    54     0     0     0
SMALL
USER_CHARGES

@<TRIPOS>ATOM
      1 C1        -38.2785   -6.9720  -56.7099 C.1       1 MOL        -0.1770
      2 C2        -39.0114   -7.4909  -57.5061 C.1       1 MOL        -0.0730
      3 C3        -41.0113   -8.2755  -60.5496 C.ar      1 MOL        -0.1500
      4 C4        -40.1432   -7.6161  -59.6817 C.ar      1 MOL        -0.1500
      5 C5        -41.6358   -9.4586  -60.1514 C.ar      1 MOL        -0.1500
      6 C6        -40.5247   -9.3300  -58.0184 C.ar      1 MOL        -0.1500
      7 C7        -42.5626  -13.9763  -57.9550 C.ar      1 MOL        -0.1500
      8 C8        -43.3284  -14.6958  -55.4019 C.ar      1 MOL        -0.1500
      9 C9        -42.9269  -11.1779  -55.0044 C.ar      1 MOL         0.4700
     10 C10       -39.8982   -8.1457  -58.4154 C.ar      1 MOL         0.0730
     11 C11       -42.6834  -12.9820  -56.9671 C.ar      1 MOL         0.0000
     12 C12       -43.0696  -13.3527  -55.6686 C.ar      1 MOL         0.3100
     13 C13       -41.4038  -10.0010  -58.8784 C.ar      1 MOL         0.1000
     14 C14       -42.8397  -15.3161  -57.6823 C.ar      1 MOL         0.0825
     15 C15       -43.2192  -15.6863  -56.3875 C.ar      1 MOL         0.0825
     16 C16       -42.4396  -11.6129  -57.2018 C.ar      1 MOL         0.4100
     17 C17       -45.5649  -18.0093  -60.9363 C.3       1 MOL         0.2800
     18 C18       -46.1347  -19.3882  -55.7973 C.3       1 MOL         0.2800
     19 C19       -42.7533  -15.8949  -59.9971 C.3       1 MOL         0.2800
     20 C20       -43.9882  -17.4107  -54.9129 C.3       1 MOL         0.2800
     21 C21       -43.4618  -16.9592  -60.8095 C.3       1 MOL         0.2800
     22 C22       -44.0039  -18.9344  -54.8309 C.3       1 MOL         0.2800
     23 N1        -43.1923  -12.4531  -54.6847 N.ar      1 MOL        -0.6200
     24 N2        -42.5586  -10.7077  -56.2044 N.ar      1 MOL        -0.6200
     25 N3        -42.0647  -11.1835  -58.4992 N.pl3     1 MOL        -0.6000
     26 O1        -42.7628  -16.3102  -58.6236 O.3       1 MOL        -0.3625
     27 O2        -43.4538  -17.0236  -56.1814 O.3       1 MOL        -0.3625
     28 O3        -44.8515  -16.8701  -60.4880 O.3       1 MOL        -0.5600
     29 O4        -44.7274  -19.5444  -55.8970 O.3       1 MOL        -0.5600
     30 H1        -37.6345   -6.5273  -55.9887 H         1 MOL         0.1770
     31 H2        -41.2064   -7.8678  -61.5372 H         1 MOL         0.1500
     32 H3        -39.6670   -6.6945  -60.0044 H         1 MOL         0.1500
     33 H4        -42.3139   -9.9533  -60.8434 H         1 MOL         0.1500
     34 H5        -40.3164   -9.7312  -57.0287 H         1 MOL         0.1500
     35 H6        -42.2459  -13.6836  -58.9510 H         1 MOL         0.1500
     36 H7        -43.6237  -14.9516  -54.3870 H         1 MOL         0.1500
     37 H8        -43.0215  -10.4493  -54.2099 H         1 MOL         0.1500
     38 H9        -46.6267  -17.8556  -60.7286 H         1 MOL         0.0000
     39 H10       -45.2256  -18.8930  -60.3886 H         1 MOL         0.0000
     40 H11       -45.4292  -18.1509  -62.0122 H         1 MOL         0.0000
     41 H12       -46.5998  -20.0300  -56.5508 H         1 MOL         0.0000
     42 H13       -46.4226  -18.3548  -56.0065 H         1 MOL         0.0000
     43 H14       -46.4956  -19.6939  -54.8107 H         1 MOL         0.0000
     44 H15       -43.3014  -14.9592  -60.1553 H         1 MOL         0.0000
     45 H16       -41.7128  -15.7882  -60.3198 H         1 MOL         0.0000
     46 H17       -43.3544  -17.0480  -54.0959 H         1 MOL         0.0000
     47 H18       -45.0001  -17.0051  -54.8082 H         1 MOL         0.0000
     48 H19       -43.0769  -17.9533  -60.5603 H         1 MOL         0.0000
     49 H20       -43.3357  -16.7607  -61.8789 H         1 MOL         0.0000
     50 H21       -44.4009  -19.2693  -53.8654 H         1 MOL         0.0000
     51 H22       -42.9756  -19.3034  -54.9083 H         1 MOL         0.0000
     52 H23       -42.5403  -11.6610  -59.2580 H         1 MOL         0.4000
@<TRIPOS>BOND
     1    1    2 3
     2    2   10 1
     3    3    4 ar
     4    3    5 ar
     5    4   10 ar
     6    5   13 ar
     7    6   10 ar
     8    6   13 ar
     9    7   11 ar
    10    7   14 ar
    11    8   12 ar
    12    8   15 ar
    13    9   23 ar
    14    9   24 ar
    15   11   12 ar
    16   11   16 ar
    17   12   23 ar
    18   13   25 1
    19   14   15 ar
    20   14   26 1
    21   15   27 1
    22   16   24 ar
    23   16   25 1
    24   17   28 1
    25   18   29 1
    26   19   21 1
    27   19   26 1
    28   20   22 1
    29   20   27 1
    30   21   28 1
    31   22   29 1
    32    1   30 1
    33    3   31 1
    34    4   32 1
    35    5   33 1
    36    6   34 1
    37    7   35 1
    38    8   36 1
    39    9   37 1
    40   17   38 1
    41   17   39 1
    42   17   40 1
    43   18   41 1
    44   18   42 1
    45   18   43 1
    46   19   44 1
    47   19   45 1
    48   20   46 1
    49   20   47 1
    50   21   48 1
    51   21   49 1
    52   22   50 1
    53   22   51 1
    54   25   52 1
