@<TRIPOS>MOLECULE
4-(2,4-dichloro-5-methoxy-anilino)-6-methoxy-7-[3-(4-methylpiperazin-1-yl)propoxy]quinoline-3-carbonitrile
   65    68     0     0     0
SMALL
USER_CHARGES

@<TRIPOS>ATOM
      1 C1        -42.5073  -12.9035  -55.1012 C.1       1 MOL         0.2440
      2 C2        -41.3886  -13.4014  -59.8678 C.ar      1 MOL        -0.1135
      3 C3        -42.5368  -15.9269  -59.7956 C.ar      1 MOL        -0.2141
      4 C4        -42.6898  -10.6778  -59.1187 C.ar      1 MOL        -0.1806
      5 C5        -41.2339   -8.3335  -58.7100 C.ar      1 MOL        -0.0838
      6 C6        -43.0369  -14.8994  -56.3836 C.ar      1 MOL         0.4607
      7 C7        -42.4874  -13.6346  -56.3296 C.ar      1 MOL        -0.1707
      8 C8        -41.9422  -13.8878  -58.6713 C.ar      1 MOL        -0.1738
      9 C9        -42.5274  -15.1705  -58.6268 C.ar      1 MOL         0.4310
     10 C10       -41.6489  -10.6562  -58.1904 C.ar      1 MOL         0.1952
     11 C11       -41.9326  -13.1259  -57.4951 C.ar      1 MOL         0.2624
     12 C12       -41.4115  -14.1792  -61.0218 C.ar      1 MOL         0.0881
     13 C13       -41.9864  -15.4435  -60.9853 C.ar      1 MOL         0.1210
     14 C14       -43.0027   -9.5274  -59.8427 C.ar      1 MOL         0.1334
     15 C15       -40.9210   -9.4840  -57.9861 C.ar      1 MOL        -0.0295
     16 C16       -42.2748   -8.3552  -59.6383 C.ar      1 MOL        -0.0184
     17 C17       -43.9941  -11.9752  -64.6821 C.3       1 MOL         0.1674
     18 C18       -45.8882  -13.4023  -65.1202 C.3       1 MOL         0.1674
     19 C19       -43.0482  -13.1559  -64.9267 C.3       1 MOL         0.1711
     20 C20       -44.9418  -14.5824  -65.3659 C.3       1 MOL         0.1711
     21 C21       -46.1370  -11.0054  -65.2143 C.3       1 MOL         0.1580
     22 C22       -39.4896  -13.9640  -62.4058 C.3       1 MOL         0.1163
     23 C23       -44.7076  -10.8215  -60.8792 C.3       1 MOL         0.1155
     24 C24       -43.2326  -16.8119  -64.0905 C.3       1 MOL        -0.0888
     25 C25       -42.8001  -15.5526  -64.8299 C.3       1 MOL         0.1796
     26 C26       -43.3039  -16.6156  -62.5810 C.3       1 MOL         0.1327
     27 N1        -42.5235  -12.3100  -54.1040 N.1       1 MOL        -0.3586
     28 N2        -43.0666  -15.6668  -57.4972 N.ar      1 MOL        -0.6627
     29 N3        -45.2345  -12.1303  -65.4518 N.3       1 MOL        -0.7336
     30 N4        -43.7026  -14.4274  -64.5944 N.3       1 MOL        -0.7378
     31 N5        -41.3579  -11.8288  -57.4778 N.pl3     1 MOL        -0.6909
     32 O1        -40.8709  -13.6936  -62.1729 O.3       1 MOL        -0.3321
     33 O2        -44.0249   -9.5772  -60.7432 O.3       1 MOL        -0.3373
     34 O3        -42.0205  -16.2271  -62.1092 O.3       1 MOL        -0.3346
     35 Cl1       -39.6245   -9.4143  -56.8464 Cl        1 MOL        -0.0755
     36 Cl2       -42.6408   -6.9183  -60.5201 Cl        1 MOL        -0.0644
     37 H1        -40.9329  -12.4149  -59.9205 H         1 MOL         0.1532
     38 H2        -42.9830  -16.9204  -59.7864 H         1 MOL         0.1655
     39 H3        -43.2605  -11.5893  -59.2817 H         1 MOL         0.1571
     40 H4        -40.6665   -7.4187  -58.5512 H         1 MOL         0.1657
     41 H5        -43.4895  -15.3621  -55.5109 H         1 MOL         0.0371
     42 H6        -44.2077  -11.8899  -63.6078 H         1 MOL         0.0377
     43 H7        -43.4819  -11.0543  -64.9865 H         1 MOL         0.0377
     44 H8        -46.7770  -13.5368  -65.7485 H         1 MOL         0.0377
     45 H9        -46.2236  -13.4096  -64.0741 H         1 MOL         0.0377
     46 H10       -42.7125  -13.1494  -65.9726 H         1 MOL         0.0370
     47 H11       -42.1594  -13.0213  -64.2982 H         1 MOL         0.0370
     48 H12       -45.4541  -15.5036  -65.0627 H         1 MOL         0.0370
     49 H13       -44.7272  -14.6664  -66.4400 H         1 MOL         0.0370
     50 H14       -47.0560  -11.1325  -65.7924 H         1 MOL         0.0322
     51 H15       -45.6598  -10.0683  -65.5134 H         1 MOL         0.0322
     52 H16       -46.3942  -10.9447  -64.1534 H         1 MOL         0.0322
     53 H17       -39.1862  -13.5209  -63.3576 H         1 MOL         0.0460
     54 H18       -39.3273  -15.0446  -62.4266 H         1 MOL         0.0460
     55 H19       -38.9002  -13.5245  -61.5976 H         1 MOL         0.0460
     56 H20       -45.4980  -10.7245  -61.6276 H         1 MOL         0.0471
     57 H21       -45.1364  -11.1100  -59.9162 H         1 MOL         0.0471
     58 H22       -43.9952  -11.5844  -61.2018 H         1 MOL         0.0471
     59 H23       -44.2189  -17.1252  -64.4551 H         1 MOL         0.0653
     60 H24       -42.5518  -17.6422  -64.3172 H         1 MOL         0.0653
     61 H25       -41.8068  -15.2408  -64.4925 H         1 MOL         0.0322
     62 H26       -42.7560  -15.7259  -65.9099 H         1 MOL         0.0322
     63 H27       -44.0201  -15.8317  -62.3161 H         1 MOL         0.0410
     64 H28       -43.5912  -17.5456  -62.0801 H         1 MOL         0.0410
     65 H29       -40.5916  -11.7412  -56.8220 H         1 MOL         0.4556
@<TRIPOS>BOND
     1    1    7 1
     2    1   27 3
     3    2    8 ar
     4    2   12 ar
     5    3    9 ar
     6    3   13 ar
     7    4   10 ar
     8    4   14 ar
     9    5   15 ar
    10    5   16 ar
    11    6    7 ar
    12    6   28 ar
    13    7   11 ar
    14    8    9 ar
    15    8   11 ar
    16    9   28 ar
    17   10   15 ar
    18   10   31 1
    19   11   31 1
    20   12   13 ar
    21   12   32 1
    22   13   34 1
    23   14   16 ar
    24   14   33 1
    25   15   35 1
    26   16   36 1
    27   17   19 1
    28   17   29 1
    29   18   20 1
    30   18   29 1
    31   19   30 1
    32   20   30 1
    33   21   29 1
    34   22   32 1
    35   23   33 1
    36   24   25 1
    37   24   26 1
    38   25   30 1
    39   26   34 1
    40    2   37 1
    41    3   38 1
    42    4   39 1
    43    5   40 1
    44    6   41 1
    45   17   42 1
    46   17   43 1
    47   18   44 1
    48   18   45 1
    49   19   46 1
    50   19   47 1
    51   20   48 1
    52   20   49 1
    53   21   50 1
    54   21   51 1
    55   21   52 1
    56   22   53 1
    57   22   54 1
    58   22   55 1
    59   23   56 1
    60   23   57 1
    61   23   58 1
    62   24   59 1
    63   24   60 1
    64   25   61 1
    65   25   62 1
    66   26   63 1
    67   26   64 1
    68   31   65 1
