@<TRIPOS>MOLECULE
4-methyl-~{N}-[3-(4-methylimidazol-1-yl)-5-(trifluoromethyl)phenyl]-3-[[4-(3-pyridyl)pyrimidin-2-yl]amino]benzamide
   61    65     0     0     0
SMALL
USER_CHARGES

@<TRIPOS>ATOM
      1 C1        -43.5891  -14.6110  -55.5227 C.ar      1 MOL        -0.2497
      2 C2        -43.1596  -13.3200  -55.2361 C.ar      1 MOL        -0.0689
      3 C3        -39.6601   -4.8145  -58.6483 C.ar      1 MOL        -0.1076
      4 C4        -38.6224   -5.7374  -58.5181 C.ar      1 MOL        -0.1323
      5 C5        -43.3947  -10.2394  -54.8911 C.ar      1 MOL        -0.4094
      6 C6        -41.2408   -6.4884  -57.9157 C.ar      1 MOL        -0.0857
      7 C7        -44.3232    0.0274  -60.4188 C.ar      1 MOL        -0.1478
      8 C8        -43.8940   -1.9595  -59.1131 C.ar      1 MOL        -0.1645
      9 C9        -42.2736   -1.2104  -60.7411 C.ar      1 MOL        -0.1773
     10 C10       -44.1364  -14.8498  -56.7730 C.ar      1 MOL         0.4043
     11 C11       -42.8958   -8.9618  -54.7381 C.ar      1 MOL         0.4615
     12 C12       -43.8491  -12.6628  -57.4153 C.ar      1 MOL         0.4315
     13 C13       -41.5422    0.7342  -62.7535 C.2       1 MOL        -0.2484
     14 C14       -43.4129    1.8611  -62.4589 C.2       1 MOL         0.4179
     15 C15       -43.2886  -12.3214  -56.1950 C.ar      1 MOL        -0.2761
     16 C16       -40.9693   -5.1900  -58.3470 C.ar      1 MOL        -0.1496
     17 C17       -38.8939   -7.0359  -58.0868 C.ar      1 MOL        -0.0273
     18 C18       -44.7202   -0.8846  -59.4410 C.ar      1 MOL        -0.1084
     19 C19       -43.0998   -0.1355  -61.0690 C.ar      1 MOL         0.0653
     20 C20       -40.2031   -7.4114  -57.7856 C.ar      1 MOL         0.1433
     21 C21       -42.6706   -2.1224  -59.7632 C.ar      1 MOL         0.1042
     22 C22       -42.8525  -10.9718  -55.9274 C.ar      1 MOL         0.5378
     23 C23       -41.6061    1.8284  -63.5836 C.2       1 MOL         0.3180
     24 C24       -41.4930   -9.2439  -56.5044 C.ar      1 MOL         0.8952
     25 C25       -42.0512   -4.2276  -58.4833 C.2       1 MOL         0.6903
     26 C26       -37.7635   -8.0048  -57.9596 C.3       1 MOL        -0.0655
     27 C27       -40.6166    2.2778  -64.5746 C.3       1 MOL        -0.1179
     28 C28       -46.0278   -0.7100  -58.7454 C.3       1 MOL         0.6863
     29 N1        -44.2780  -13.9056  -57.7301 N.ar      1 MOL        -0.6655
     30 N2        -41.9413   -8.4301  -55.5296 N.ar      1 MOL        -0.7354
     31 N3        -42.7730    2.5260  -63.3951 N.2       1 MOL        -0.6553
     32 N4        -41.8968  -10.5036  -56.7566 N.ar      1 MOL        -0.7505
     33 N5        -42.7063    0.7686  -62.0389 N.pl3     1 MOL        -0.1500
     34 N6        -40.4963   -8.7224  -57.3496 N.pl3     1 MOL        -0.7542
     35 N7        -41.8307   -3.2148  -59.4296 N.am      1 MOL        -0.4714
     36 O1        -43.0711   -4.2909  -57.7830 O.2       1 MOL        -0.5843
     37 F1        -46.7301    0.3835  -59.1660 F         1 MOL        -0.2343
     38 F2        -46.8798   -1.7650  -58.9098 F         1 MOL        -0.2343
     39 F3        -45.8888   -0.5587  -57.3960 F         1 MOL        -0.2343
     40 H1        -43.4980  -15.4058  -54.7914 H         1 MOL         0.1476
     41 H2        -42.7266  -13.1068  -54.2619 H         1 MOL         0.1450
     42 H3        -39.4373   -3.8053  -58.9848 H         1 MOL         0.1353
     43 H4        -37.6057   -5.4344  -58.7542 H         1 MOL         0.1446
     44 H5        -44.1619  -10.6279  -54.2330 H         1 MOL         0.1595
     45 H6        -42.2623   -6.7814  -57.6824 H         1 MOL         0.1655
     46 H7        -44.9711    0.8643  -60.6714 H         1 MOL         0.1577
     47 H8        -44.2051   -2.6689  -58.3496 H         1 MOL         0.1543
     48 H9        -41.3188   -1.3399  -61.2472 H         1 MOL         0.1882
     49 H10       -44.4871  -15.8401  -57.0456 H         1 MOL         0.0247
     50 H11       -43.2610   -8.3108  -53.9510 H         1 MOL         0.0298
     51 H12       -43.9768  -11.9297  -58.2066 H         1 MOL         0.0338
     52 H13       -40.7937   -0.0350  -62.6165 H         1 MOL         0.1810
     53 H14       -44.3804    2.1240  -62.0513 H         1 MOL         0.0753
     54 H15       -37.3343   -7.9565  -56.9524 H         1 MOL         0.0563
     55 H16       -38.0994   -9.0316  -58.1483 H         1 MOL         0.0563
     56 H17       -36.9727   -7.7879  -58.6881 H         1 MOL         0.0563
     57 H18       -40.8061    1.8282  -65.5651 H         1 MOL         0.0493
     58 H19       -40.6212    3.3756  -64.7034 H         1 MOL         0.0493
     59 H20       -39.5830    2.0141  -64.2840 H         1 MOL         0.0493
     60 H21       -39.8620   -9.4231  -57.7195 H         1 MOL         0.4662
     61 H22       -40.9545   -3.2719  -59.9426 H         1 MOL         0.3248
@<TRIPOS>BOND
     1    1    2 ar
     2    1   10 ar
     3    2   15 ar
     4    3    4 ar
     5    3   16 ar
     6    4   17 ar
     7    5   11 ar
     8    5   22 ar
     9    6   16 ar
    10    6   20 ar
    11    7   18 ar
    12    7   19 ar
    13    8   18 ar
    14    8   21 ar
    15    9   19 ar
    16    9   21 ar
    17   10   29 ar
    18   11   30 ar
    19   12   15 ar
    20   12   29 ar
    21   13   23 2
    22   13   33 1
    23   14   31 2
    24   14   33 1
    25   15   22 1
    26   16   25 1
    27   17   20 ar
    28   17   26 1
    29   18   28 1
    30   19   33 1
    31   20   34 1
    32   21   35 1
    33   22   32 ar
    34   23   27 1
    35   23   31 1
    36   24   30 ar
    37   24   32 ar
    38   24   34 1
    39   25   35 am
    40   25   36 2
    41   28   37 1
    42   28   38 1
    43   28   39 1
    44    1   40 1
    45    2   41 1
    46    3   42 1
    47    4   43 1
    48    5   44 1
    49    6   45 1
    50    7   46 1
    51    8   47 1
    52    9   48 1
    53   10   49 1
    54   11   50 1
    55   12   51 1
    56   13   52 1
    57   14   53 1
    58   26   54 1
    59   26   55 1
    60   26   56 1
    61   27   57 1
    62   27   58 1
    63   27   59 1
    64   34   60 1
    65   35   61 1
