@<TRIPOS>MOLECULE
4-methyl-~{N}-[3-(4-methylimidazol-1-yl)-5-(trifluoromethyl)phenyl]-3-[[4-(3-pyridyl)pyrimidin-2-yl]amino]benzamide
   61    65     0     0     0
SMALL
USER_CHARGES

@<TRIPOS>ATOM
      1 C1        -39.6147   -9.0029  -59.1340 C.ar      1 MOL        -0.2497
      2 C2        -40.2035   -9.3446  -57.9217 C.ar      1 MOL        -0.0689
      3 C3        -43.1720  -16.5110  -57.8359 C.ar      1 MOL        -0.1076
      4 C4        -43.1460  -16.7047  -56.4548 C.ar      1 MOL        -0.1323
      5 C5        -42.3431   -9.2932  -55.6669 C.ar      1 MOL        -0.4094
      6 C6        -43.3977  -14.1295  -57.4977 C.ar      1 MOL        -0.0857
      7 C7        -44.7056  -12.5549  -64.1591 C.ar      1 MOL        -0.1478
      8 C8        -44.3540  -14.3572  -62.5890 C.ar      1 MOL        -0.1645
      9 C9        -44.3721  -12.0682  -61.8162 C.ar      1 MOL        -0.1773
     10 C10       -40.3526   -9.1962  -60.2907 C.ar      1 MOL         0.4043
     11 C11       -42.9610   -9.7648  -54.5266 C.ar      1 MOL         0.4615
     12 C12       -42.1479  -10.0167  -59.1151 C.ar      1 MOL         0.4315
     13 C13       -44.6419   -9.2638  -62.4713 C.2       1 MOL        -0.2484
     14 C14       -44.9447   -9.7099  -64.6081 C.2       1 MOL         0.4179
     15 C15       -41.4940   -9.8620  -57.9033 C.ar      1 MOL        -0.2761
     16 C16       -43.2978  -15.2234  -58.3574 C.ar      1 MOL        -0.1496
     17 C17       -43.2460  -15.6107  -55.5951 C.ar      1 MOL        -0.0273
     18 C18       -44.5823  -13.9186  -63.8933 C.ar      1 MOL        -0.1084
     19 C19       -44.6005  -11.6297  -63.1205 C.ar      1 MOL         0.0653
     20 C20       -43.3718  -14.3231  -56.1166 C.ar      1 MOL         0.1433
     21 C21       -44.2488  -13.4319  -61.5504 C.ar      1 MOL         0.1042
     22 C22       -42.1321  -10.2266  -56.6611 C.ar      1 MOL         0.5378
     23 C23       -44.8238   -8.1147  -63.2041 C.2       1 MOL         0.3180
     24 C24       -43.0865  -11.8596  -55.4004 C.ar      1 MOL         0.8952
     25 C25       -43.3253  -15.0218  -59.7974 C.2       1 MOL         0.6903
     26 C26       -43.2188  -15.8478  -54.1201 C.3       1 MOL        -0.0655
     27 C27       -44.8315   -6.7233  -62.7274 C.3       1 MOL        -0.1179
     28 C28       -44.6954  -14.9080  -65.0035 C.3       1 MOL         0.6863
     29 N1        -41.6085   -9.6961  -60.3126 N.ar      1 MOL        -0.6655
     30 N2        -43.3475  -11.0465  -54.3590 N.ar      1 MOL        -0.7354
     31 N3        -45.0121   -8.3992  -64.5334 N.2       1 MOL        -0.6553
     32 N4        -42.4922  -11.5230  -56.5610 N.ar      1 MOL        -0.7505
     33 N5        -44.7224  -10.2774  -63.3842 N.pl3     1 MOL        -0.1500
     34 N6        -43.4763  -13.2044  -55.2609 N.pl3     1 MOL        -0.7542
     35 N7        -44.0172  -13.8778  -60.2248 N.am      1 MOL        -0.4714
     36 O1        -42.8018  -15.8287  -60.5781 O.2       1 MOL        -0.5843
     37 F1        -44.9195  -14.3378  -66.2244 F         1 MOL        -0.2343
     38 F2        -43.5771  -15.6747  -65.1687 F         1 MOL        -0.2343
     39 F3        -45.7201  -15.7904  -64.8182 F         1 MOL        -0.2343
     40 H1        -38.6104   -8.5971  -59.1731 H         1 MOL         0.1476
     41 H2        -39.6452   -9.2025  -56.9997 H         1 MOL         0.1450
     42 H3        -43.0931  -17.3705  -58.4966 H         1 MOL         0.1353
     43 H4        -43.0466  -17.7119  -56.0587 H         1 MOL         0.1446
     44 H5        -42.0485   -8.2553  -55.7606 H         1 MOL         0.1595
     45 H6        -43.4974  -13.1254  -57.9048 H         1 MOL         0.1655
     46 H7        -44.8836  -12.2175  -65.1781 H         1 MOL         0.1577
     47 H8        -44.2591  -15.4211  -62.3839 H         1 MOL         0.1543
     48 H9        -44.2893  -11.3482  -61.0044 H         1 MOL         0.1882
     49 H10       -39.9382   -8.9457  -61.2620 H         1 MOL         0.0247
     50 H11       -43.1687   -9.1051  -53.6909 H         1 MOL         0.0298
     51 H12       -43.1574  -10.4142  -59.1691 H         1 MOL         0.0338
     52 H13       -44.4701   -9.4376  -61.4173 H         1 MOL         0.1810
     53 H14       -45.0497  -10.2939  -65.5131 H         1 MOL         0.0753
     54 H15       -42.1882  -15.8117  -53.7492 H         1 MOL         0.0563
     55 H16       -43.8094  -15.0928  -53.5871 H         1 MOL         0.0563
     56 H17       -43.6476  -16.8255  -53.8686 H         1 MOL         0.0563
     57 H18       -43.8193   -6.2828  -62.7551 H         1 MOL         0.0493
     58 H19       -45.4905   -6.0760  -63.3345 H         1 MOL         0.0493
     59 H20       -45.2010   -6.6382  -61.6890 H         1 MOL         0.0493
     60 H21       -43.9189  -13.4147  -54.3720 H         1 MOL         0.4662
     61 H22       -44.4024  -13.2927  -59.4876 H         1 MOL         0.3248
@<TRIPOS>BOND
     1    1    2 ar
     2    1   10 ar
     3    2   15 ar
     4    3    4 ar
     5    3   16 ar
     6    4   17 ar
     7    5   11 ar
     8    5   22 ar
     9    6   16 ar
    10    6   20 ar
    11    7   18 ar
    12    7   19 ar
    13    8   18 ar
    14    8   21 ar
    15    9   19 ar
    16    9   21 ar
    17   10   29 ar
    18   11   30 ar
    19   12   15 ar
    20   12   29 ar
    21   13   23 2
    22   13   33 1
    23   14   31 2
    24   14   33 1
    25   15   22 1
    26   16   25 1
    27   17   20 ar
    28   17   26 1
    29   18   28 1
    30   19   33 1
    31   20   34 1
    32   21   35 1
    33   22   32 ar
    34   23   27 1
    35   23   31 1
    36   24   30 ar
    37   24   32 ar
    38   24   34 1
    39   25   35 am
    40   25   36 2
    41   28   37 1
    42   28   38 1
    43   28   39 1
    44    1   40 1
    45    2   41 1
    46    3   42 1
    47    4   43 1
    48    5   44 1
    49    6   45 1
    50    7   46 1
    51    8   47 1
    52    9   48 1
    53   10   49 1
    54   11   50 1
    55   12   51 1
    56   13   52 1
    57   14   53 1
    58   26   54 1
    59   26   55 1
    60   26   56 1
    61   27   57 1
    62   27   58 1
    63   27   59 1
    64   34   60 1
    65   35   61 1
