@<TRIPOS>MOLECULE
~{N}-methyl-2-[[3-[(~{E})-2-(2-pyridyl)vinyl]-1~{H}-indazol-6-yl]sulfanyl]benzamide
   46    49     0     0     0
SMALL
USER_CHARGES

@<TRIPOS>ATOM
      1 C1        -43.6810  -19.5675  -54.4570 C.ar      1 MOL        -0.1467
      2 C2        -42.3887  -19.4201  -54.9608 C.ar      1 MOL        -0.0974
      3 C3        -40.6126   -7.1712  -59.4015 C.ar      1 MOL        -0.0928
      4 C4        -40.2471   -6.2154  -58.4602 C.ar      1 MOL        -0.2453
      5 C5        -41.9099  -13.9612  -58.8601 C.ar      1 MOL        -0.0799
      6 C6        -44.7790  -19.1995  -55.2347 C.ar      1 MOL        -0.0939
      7 C7        -42.1943  -18.9046  -56.2423 C.ar      1 MOL        -0.1576
      8 C8        -42.0357  -15.3343  -59.1058 C.ar      1 MOL        -0.1081
      9 C9        -41.2642   -8.3291  -58.9915 C.ar      1 MOL        -0.2368
     10 C10       -43.5722  -15.5940  -57.2349 C.ar      1 MOL        -0.0800
     11 C11       -40.5535   -6.4631  -57.1318 C.ar      1 MOL         0.3986
     12 C12       -42.6257  -13.4031  -57.7878 C.ar      1 MOL        -0.1733
     13 C13       -44.5846  -18.6840  -56.5162 C.ar      1 MOL        -0.1327
     14 C14       -43.4325  -14.2232  -57.0071 C.ar      1 MOL         0.0548
     15 C15       -42.8532  -16.1350  -58.3059 C.ar      1 MOL        -0.0350
     16 C16       -43.2923  -18.5366  -57.0200 C.ar      1 MOL         0.0286
     17 C17       -41.5249   -8.4822  -57.6394 C.ar      1 MOL         0.4459
     18 C18       -42.7761  -12.1202  -57.2187 C.2       1 MOL         0.3775
     19 C19       -42.2137   -9.6916  -57.1550 C.2       1 MOL        -0.1979
     20 C20       -42.1271  -10.9518  -57.6968 C.2       1 MOL        -0.1776
     21 C21       -45.7683  -18.3155  -57.2848 C.2       1 MOL         0.6672
     22 C22       -47.0731  -18.7067  -59.3851 C.3       1 MOL         0.0802
     23 N1        -41.1853   -7.5758  -56.6956 N.ar      1 MOL        -0.6566
     24 N2        -43.6015  -12.1122  -56.1696 N.2       1 MOL        -0.3948
     25 N3        -43.9827  -13.3962  -56.0652 N.pl3     1 MOL        -0.3861
     26 N4        -45.9626  -18.9772  -58.5006 N.am      1 MOL        -0.5743
     27 O1        -46.5395  -17.4372  -56.8658 O.2       1 MOL        -0.5831
     28 S1        -42.9859  -17.8821  -58.6533 S.3       1 MOL        -0.0864
     29 H1        -43.8321  -19.9678  -53.4586 H         1 MOL         0.1379
     30 H2        -41.5339  -19.7056  -54.3548 H         1 MOL         0.1360
     31 H3        -40.3908   -7.0130  -60.4527 H         1 MOL         0.1387
     32 H4        -39.7379   -5.3059  -58.7572 H         1 MOL         0.1440
     33 H5        -41.2701  -13.3518  -59.4913 H         1 MOL         0.1450
     34 H6        -45.7810  -19.3190  -54.8295 H         1 MOL         0.1409
     35 H7        -41.1784  -18.7969  -56.6142 H         1 MOL         0.1467
     36 H8        -41.4799  -15.7636  -59.9370 H         1 MOL         0.1542
     37 H9        -41.5526   -9.0795  -59.7207 H         1 MOL         0.1438
     38 H10       -44.2123  -16.2007  -56.6025 H         1 MOL         0.1523
     39 H11       -40.2887   -5.7498  -56.3582 H         1 MOL         0.0235
     40 H12       -42.8190   -9.5504  -56.2628 H         1 MOL         0.1617
     41 H13       -41.4575  -11.0590  -58.5773 H         1 MOL         0.1330
     42 H14       -47.8920  -19.4021  -59.1835 H         1 MOL         0.0431
     43 H15       -46.7627  -18.8210  -60.4272 H         1 MOL         0.0431
     44 H16       -47.4341  -17.6854  -59.2370 H         1 MOL         0.0431
     45 H17       -44.6254  -13.6450  -55.3237 H         1 MOL         0.4865
     46 H18       -45.2665  -19.6412  -58.8235 H         1 MOL         0.3101
@<TRIPOS>BOND
     1    1    2 ar
     2    1    6 ar
     3    2    7 ar
     4    3    4 ar
     5    3    9 ar
     6    4   11 ar
     7    5    8 ar
     8    5   12 ar
     9    6   13 ar
    10    7   16 ar
    11    8   15 ar
    12    9   17 ar
    13   10   14 ar
    14   10   15 ar
    15   11   23 ar
    16   12   14 ar
    17   12   18 1
    18   13   16 ar
    19   13   21 1
    20   14   25 1
    21   15   28 1
    22   16   28 1
    23   17   19 1
    24   17   23 ar
    25   18   20 1
    26   18   24 2
    27   19   20 2
    28   21   26 am
    29   21   27 2
    30   22   26 1
    31   24   25 1
    32    1   29 1
    33    2   30 1
    34    3   31 1
    35    4   32 1
    36    5   33 1
    37    6   34 1
    38    7   35 1
    39    8   36 1
    40    9   37 1
    41   10   38 1
    42   11   39 1
    43   19   40 1
    44   20   41 1
    45   22   42 1
    46   22   43 1
    47   22   44 1
    48   25   45 1
    49   26   46 1
