@<TRIPOS>MOLECULE
3-(2-imidazo[1,2-b]pyridazin-3-ylethynyl)-4-methyl-~{N}-[4-[(4-methylpiperazin-1-yl)methyl]-3-(trifluoromethyl)phenyl]benzamide
   66    70     0     0     0
SMALL
USER_CHARGES

@<TRIPOS>ATOM
      1 C1        -40.8255   -8.4951  -57.3852 C.1       1 MOL        -0.0730
      2 C2        -41.1896   -9.6356  -57.4683 C.1       1 MOL        -0.0200
      3 C3        -39.8423   -4.4383  -58.0080 C.ar      1 MOL        -0.1500
      4 C4        -38.8408   -5.3336  -57.6197 C.ar      1 MOL        -0.1500
      5 C5        -44.8143   -0.4449  -59.5963 C.ar      1 MOL        -0.1500
      6 C6        -44.1098   -1.5941  -59.2164 C.ar      1 MOL        -0.1500
      7 C7        -41.4562   -6.2251  -57.9347 C.ar      1 MOL        -0.1500
      8 C8        -42.0786   -0.5632  -59.9800 C.ar      1 MOL        -0.1500
      9 C9        -41.5630  -11.4847  -59.0934 C.2       1 MOL         0.0772
     10 C10       -40.4507   -7.1241  -57.5504 C.ar      1 MOL         0.0730
     11 C11       -41.6387  -10.9273  -57.8377 C.2       1 MOL        -0.1316
     12 C12       -41.1623   -4.8771  -58.1635 C.ar      1 MOL         0.0862
     13 C13       -39.1301   -6.6832  -57.3791 C.ar      1 MOL        -0.1435
     14 C14       -44.1614    0.6578  -60.1780 C.ar      1 MOL        -0.1435
     15 C15       -42.7632    0.6008  -60.3522 C.ar      1 MOL        -0.1435
     16 C16       -42.7338   -1.6616  -59.4174 C.ar      1 MOL         0.1170
     17 C17       -42.5120  -12.9606  -57.8817 C.2       1 MOL         0.1415
     18 C18       -43.1545  -14.0788  -57.3036 C.2       1 MOL        -0.1050
     19 C19       -43.4744  -14.0582  -56.0055 C.2       1 MOL        -0.1356
     20 C20       -43.1214  -12.8321  -55.2506 C.2       1 MOL         0.3756
     21 C21       -42.2879   -3.9745  -58.5561 C.2       1 MOL         0.5438
     22 C22       -44.5386    1.9152  -64.3343 C.3       1 MOL         0.2700
     23 C23       -44.4905    4.1897  -63.5008 C.3       1 MOL         0.2700
     24 C24       -45.1421    1.4500  -63.0045 C.3       1 MOL         0.2700
     25 C25       -45.1028    3.7116  -62.1794 C.3       1 MOL         0.2700
     26 C26       -38.0228   -7.6100  -56.9659 C.3       1 MOL         0.1435
     27 C27       -44.2251    3.7542  -65.8543 C.3       1 MOL         0.2700
     28 C28       -44.9969    1.8613  -60.5843 C.3       1 MOL         0.4135
     29 C29       -41.9377    1.7144  -60.9410 C.3       1 MOL         1.1635
     30 N1        -42.1036  -12.7403  -59.1141 N.2       1 MOL        -0.5653
     31 N2        -42.5387  -11.7752  -55.7264 N.2       1 MOL        -0.6520
     32 N3        -42.2467  -11.8778  -57.0559 N.pl3     1 MOL         0.5052
     33 N4        -44.8745    3.3167  -64.6186 N.3       1 MOL        -0.8100
     34 N5        -44.6844    2.3344  -61.9333 N.3       1 MOL        -0.8100
     35 N6        -41.9071   -2.7572  -59.0880 N.am      1 MOL        -0.5470
     36 O1        -43.4396   -4.3644  -58.3917 O.2       1 MOL        -0.5700
     37 F1        -40.6218    1.6546  -60.5854 F         1 MOL        -0.3400
     38 F2        -41.9436    1.6992  -62.3018 F         1 MOL        -0.3400
     39 F3        -42.3434    2.9576  -60.5644 F         1 MOL        -0.3400
     40 H1        -39.5464   -3.4068  -58.1730 H         1 MOL         0.1500
     41 H2        -37.8246   -4.9610  -57.5085 H         1 MOL         0.1500
     42 H3        -45.8905   -0.4204  -59.4339 H         1 MOL         0.1500
     43 H4        -44.6746   -2.4061  -58.7727 H         1 MOL         0.1500
     44 H5        -42.4732   -6.5931  -58.0616 H         1 MOL         0.1500
     45 H6        -41.0016   -0.6128  -60.1339 H         1 MOL         0.1500
     46 H7        -41.1476  -11.0356  -59.9848 H         1 MOL         0.1500
     47 H8        -43.3884  -14.9375  -57.9226 H         1 MOL         0.1500
     48 H9        -43.9709  -14.8769  -55.5033 H         1 MOL         0.1500
     49 H10       -43.3955  -12.8526  -54.1833 H         1 MOL         0.0600
     50 H11       -43.4490    1.7761  -64.3079 H         1 MOL         0.0000
     51 H12       -44.9247    1.2718  -65.1335 H         1 MOL         0.0000
     52 H13       -44.8355    5.2124  -63.6937 H         1 MOL         0.0000
     53 H14       -43.3965    4.2302  -63.3984 H         1 MOL         0.0000
     54 H15       -46.2380    1.4358  -63.0624 H         1 MOL         0.0000
     55 H16       -44.8116    0.4194  -62.8314 H         1 MOL         0.0000
     56 H17       -44.7382    4.3699  -61.3816 H         1 MOL         0.0000
     57 H18       -46.1966    3.7970  -62.2031 H         1 MOL         0.0000
     58 H19       -38.3044   -8.1646  -56.0647 H         1 MOL         0.0000
     59 H20       -37.7925   -8.3122  -57.7725 H         1 MOL         0.0000
     60 H21       -37.1084   -7.0560  -56.7257 H         1 MOL         0.0000
     61 H22       -44.5155    4.7817  -66.0984 H         1 MOL         0.0000
     62 H23       -44.5384    3.1271  -66.6961 H         1 MOL         0.0000
     63 H24       -43.1316    3.7129  -65.7845 H         1 MOL         0.0000
     64 H25       -46.0693    1.6424  -60.5030 H         1 MOL         0.0000
     65 H26       -44.7835    2.6429  -59.8433 H         1 MOL         0.0000
     66 H27       -40.9239   -2.6079  -59.2916 H         1 MOL         0.3700
@<TRIPOS>BOND
     1    1    2 3
     2    1   10 1
     3    2   11 1
     4    3    4 ar
     5    3   12 ar
     6    4   13 ar
     7    5    6 ar
     8    5   14 ar
     9    6   16 ar
    10    7   10 ar
    11    7   12 ar
    12    8   15 ar
    13    8   16 ar
    14    9   11 2
    15    9   30 1
    16   10   13 ar
    17   11   32 1
    18   12   21 1
    19   13   26 1
    20   14   15 ar
    21   14   28 1
    22   15   29 1
    23   16   35 1
    24   17   18 1
    25   17   30 2
    26   17   32 1
    27   18   19 2
    28   19   20 1
    29   20   31 2
    30   21   35 am
    31   21   36 2
    32   22   24 1
    33   22   33 1
    34   23   25 1
    35   23   33 1
    36   24   34 1
    37   25   34 1
    38   27   33 1
    39   28   34 1
    40   29   37 1
    41   29   38 1
    42   29   39 1
    43   31   32 1
    44    3   40 1
    45    4   41 1
    46    5   42 1
    47    6   43 1
    48    7   44 1
    49    8   45 1
    50    9   46 1
    51   18   47 1
    52   19   48 1
    53   20   49 1
    54   22   50 1
    55   22   51 1
    56   23   52 1
    57   23   53 1
    58   24   54 1
    59   24   55 1
    60   25   56 1
    61   25   57 1
    62   26   58 1
    63   26   59 1
    64   26   60 1
    65   27   61 1
    66   27   62 1
    67   27   63 1
    68   28   64 1
    69   28   65 1
    70   35   66 1
