@<TRIPOS>MOLECULE
3-(2-imidazo[1,2-b]pyridazin-3-ylethynyl)-4-methyl-~{N}-[4-[(4-methylpiperazin-1-yl)methyl]-3-(trifluoromethyl)phenyl]benzamide
   66    70     0     0     0
SMALL
USER_CHARGES

@<TRIPOS>ATOM
      1 C1        -45.3165  -18.5546  -55.8334 C.1       1 MOL        -0.0824
      2 C2        -46.0871  -19.4172  -56.1550 C.1       1 MOL        -0.0641
      3 C3        -42.6196  -15.4956  -54.7450 C.ar      1 MOL        -0.0928
      4 C4        -42.8010  -16.5890  -53.8982 C.ar      1 MOL        -0.1469
      5 C5        -41.8955   -9.5129  -56.5083 C.ar      1 MOL        -0.0989
      6 C6        -42.1187  -10.7692  -55.9447 C.ar      1 MOL        -0.1357
      7 C7        -44.2164  -16.4328  -56.2971 C.ar      1 MOL        -0.0422
      8 C8        -42.6896  -11.6450  -58.1227 C.ar      1 MOL        -0.1519
      9 C9        -47.0234  -21.1865  -57.6953 C.2       1 MOL         0.3660
     10 C10       -44.3978  -17.5262  -55.4502 C.ar      1 MOL         0.0162
     11 C11       -47.0051  -20.4450  -56.5383 C.2       1 MOL        -0.0904
     12 C12       -43.3273  -15.4175  -55.9445 C.ar      1 MOL        -0.1640
     13 C13       -43.6900  -17.6043  -54.2508 C.ar      1 MOL        -0.0177
     14 C14       -42.0693   -9.3227  -57.8791 C.ar      1 MOL        -0.0515
     15 C15       -42.4664  -10.3887  -58.6864 C.ar      1 MOL        -0.1397
     16 C16       -42.5157  -11.8352  -56.7519 C.ar      1 MOL         0.0687
     17 C17       -48.6845  -21.8899  -56.5489 C.2       1 MOL         0.4191
     18 C18       -49.8233  -22.5102  -55.9837 C.2       1 MOL        -0.1548
     19 C19       -50.2553  -22.1238  -54.7777 C.2       1 MOL        -0.2590
     20 C20       -49.4892  -21.0465  -54.1065 C.2       1 MOL         0.3952
     21 C21       -43.1363  -14.2614  -56.8370 C.2       1 MOL         0.6862
     22 C22       -39.8860   -5.5159  -58.7286 C.3       1 MOL         0.1713
     23 C23       -38.9931   -7.2640  -57.3198 C.3       1 MOL         0.1713
     24 C24       -40.3125   -6.5680  -59.7599 C.3       1 MOL         0.1758
     25 C25       -39.4211   -8.3128  -58.3538 C.3       1 MOL         0.1758
     26 C26       -43.8586  -18.7610  -53.3185 C.3       1 MOL        -0.0720
     27 C27       -38.3166   -4.9746  -56.9793 C.3       1 MOL         0.1616
     28 C28       -41.8233   -7.9614  -58.4628 C.3       1 MOL         0.2178
     29 C29       -42.6592  -10.2086  -60.1564 C.3       1 MOL         0.6849
     30 N1        -48.0648  -22.0789  -57.6963 N.2       1 MOL        -0.6481
     31 N2        -48.4415  -20.4431  -54.5749 N.2       1 MOL        -0.4848
     32 N3        -48.0703  -20.8971  -55.8050 N.pl3     1 MOL         0.0695
     33 N4        -38.7194   -5.9750  -57.9657 N.3       1 MOL        -0.7397
     34 N5        -40.5559   -7.8981  -59.1878 N.3       1 MOL        -0.7542
     35 N6        -42.7388  -13.0916  -56.1877 N.am      1 MOL        -0.4697
     36 O1        -43.3535  -14.3509  -58.0435 O.2       1 MOL        -0.5824
     37 F1        -43.0485  -11.3483  -60.7991 F         1 MOL        -0.2397
     38 F2        -43.6074   -9.2785  -60.4714 F         1 MOL        -0.2397
     39 F3        -41.5204   -9.8013  -60.7872 F         1 MOL        -0.2397
     40 H1        -41.9225  -14.7111  -54.4615 H         1 MOL         0.1379
     41 H2        -42.2441  -16.6401  -52.9662 H         1 MOL         0.1431
     42 H3        -41.5864   -8.6888  -55.8707 H         1 MOL         0.1638
     43 H4        -41.9800  -10.9058  -54.8751 H         1 MOL         0.1821
     44 H5        -44.7665  -16.3661  -57.2340 H         1 MOL         0.1676
     45 H6        -42.9994  -12.4754  -58.7534 H         1 MOL         0.1446
     46 H7        -46.3406  -21.1277  -58.5313 H         1 MOL         0.0561
     47 H8        -50.3351  -23.2927  -56.5327 H         1 MOL         0.1708
     48 H9        -51.1171  -22.5535  -54.2859 H         1 MOL         0.1577
     49 H10       -49.8721  -20.7517  -53.1159 H         1 MOL         0.0530
     50 H11       -39.6390   -4.5907  -59.2633 H         1 MOL         0.0366
     51 H12       -40.7287   -5.2919  -58.0604 H         1 MOL         0.0366
     52 H13       -38.0886   -7.6263  -56.8164 H         1 MOL         0.0366
     53 H14       -39.7742   -7.1613  -56.5542 H         1 MOL         0.0366
     54 H15       -39.5461   -6.6248  -60.5638 H         1 MOL         0.0399
     55 H16       -41.2362   -6.2061  -60.2568 H         1 MOL         0.0399
     56 H17       -38.5479   -8.5779  -58.9894 H         1 MOL         0.0399
     57 H18       -39.6843   -9.2432  -57.8096 H         1 MOL         0.0399
     58 H19       -44.6607  -18.5523  -52.6041 H         1 MOL         0.0566
     59 H20       -44.1042  -19.6748  -53.8697 H         1 MOL         0.0566
     60 H21       -42.9335  -18.9553  -52.7655 H         1 MOL         0.0566
     61 H22       -37.4543   -5.3451  -56.4350 H         1 MOL         0.0319
     62 H23       -39.1407   -4.8009  -56.2950 H         1 MOL         0.0319
     63 H24       -38.0628   -4.0532  -57.4934 H         1 MOL         0.0319
     64 H25       -42.6241   -7.6894  -59.1591 H         1 MOL         0.0561
     65 H26       -41.7995   -7.1965  -57.6796 H         1 MOL         0.0561
     66 H27       -42.6171  -13.1251  -55.1786 H         1 MOL         0.3224
@<TRIPOS>BOND
     1    1    2 3
     2    1   10 1
     3    2   11 1
     4    3    4 ar
     5    3   12 ar
     6    4   13 ar
     7    5    6 ar
     8    5   14 ar
     9    6   16 ar
    10    7   10 ar
    11    7   12 ar
    12    8   15 ar
    13    8   16 ar
    14    9   11 2
    15    9   30 1
    16   10   13 ar
    17   11   32 1
    18   12   21 1
    19   13   26 1
    20   14   15 ar
    21   14   28 1
    22   15   29 1
    23   16   35 1
    24   17   18 1
    25   17   30 2
    26   17   32 1
    27   18   19 2
    28   19   20 1
    29   20   31 2
    30   21   35 am
    31   21   36 2
    32   22   24 1
    33   22   33 1
    34   23   25 1
    35   23   33 1
    36   24   34 1
    37   25   34 1
    38   27   33 1
    39   28   34 1
    40   29   37 1
    41   29   38 1
    42   29   39 1
    43   31   32 1
    44    3   40 1
    45    4   41 1
    46    5   42 1
    47    6   43 1
    48    7   44 1
    49    8   45 1
    50    9   46 1
    51   18   47 1
    52   19   48 1
    53   20   49 1
    54   22   50 1
    55   22   51 1
    56   23   52 1
    57   23   53 1
    58   24   54 1
    59   24   55 1
    60   25   56 1
    61   25   57 1
    62   26   58 1
    63   26   59 1
    64   26   60 1
    65   27   61 1
    66   27   62 1
    67   27   63 1
    68   28   64 1
    69   28   65 1
    70   35   66 1
