@<TRIPOS>MOLECULE
~{N}-methyl-2-[[3-[(~{E})-2-(2-pyridyl)vinyl]-1~{H}-indazol-6-yl]sulfanyl]benzamide
   46    49     0     0     0
SMALL
USER_CHARGES

@<TRIPOS>ATOM
      1 C1        -44.2608  -18.8534  -55.3289 C.ar      1 MOL        -0.1467
      2 C2        -43.0333  -18.2032  -55.4554 C.ar      1 MOL        -0.0974
      3 C3        -39.6380   -6.6742  -59.6138 C.ar      1 MOL        -0.0928
      4 C4        -39.2374   -5.9505  -58.4962 C.ar      1 MOL        -0.2453
      5 C5        -41.8503  -12.6934  -58.4730 C.ar      1 MOL        -0.0799
      6 C6        -45.1991  -18.7786  -56.3583 C.ar      1 MOL        -0.0939
      7 C7        -42.7441  -17.4780  -56.6113 C.ar      1 MOL        -0.1576
      8 C8        -42.0820  -13.9709  -58.9982 C.ar      1 MOL        -0.1081
      9 C9        -40.3711   -7.8444  -59.4512 C.ar      1 MOL        -0.2368
     10 C10       -43.7048  -14.4652  -57.2517 C.ar      1 MOL        -0.0800
     11 C11       -39.5925   -6.4357  -57.2479 C.ar      1 MOL         0.3986
     12 C12       -42.5566  -12.3022  -57.3234 C.ar      1 MOL        -0.1733
     13 C13       -44.9099  -18.0534  -57.5142 C.ar      1 MOL        -0.1327
     14 C14       -43.4588  -13.1875  -56.7441 C.ar      1 MOL         0.0548
     15 C15       -42.9939  -14.8402  -58.3964 C.ar      1 MOL        -0.0350
     16 C16       -43.6824  -17.4031  -57.6407 C.ar      1 MOL         0.0286
     17 C17       -40.6753   -8.2449  -58.1602 C.ar      1 MOL         0.4459
     18 C18       -42.6199  -11.1534  -56.5058 C.2       1 MOL         0.3775
     19 C19       -41.4507   -9.4778  -57.9354 C.2       1 MOL        -0.1979
     20 C20       -41.8570   -9.9758  -56.7204 C.2       1 MOL        -0.1776
     21 C21       -45.9277  -18.0087  -58.5582 C.2       1 MOL         0.6672
     22 C22       -47.2977  -19.3501  -60.1676 C.3       1 MOL         0.0802
     23 N1        -40.3037   -7.5683  -57.0503 N.ar      1 MOL        -0.6566
     24 N2        -43.4809  -11.2840  -55.4941 N.2       1 MOL        -0.3948
     25 N3        -43.9727  -12.5227  -55.6635 N.pl3     1 MOL        -0.3861
     26 N4        -46.3193  -19.2315  -59.1105 N.am      1 MOL        -0.5743
     27 O1        -46.3924  -16.9206  -58.9345 O.2       1 MOL        -0.5831
     28 S1        -43.2601  -16.4611  -59.0982 S.3       1 MOL        -0.0864
     29 H1        -44.4863  -19.4171  -54.4282 H         1 MOL         0.1379
     30 H2        -42.3032  -18.2606  -54.6534 H         1 MOL         0.1360
     31 H3        -39.3801   -6.3258  -60.6094 H         1 MOL         0.1387
     32 H4        -38.6648   -5.0361  -58.5995 H         1 MOL         0.1440
     33 H5        -41.1379  -12.0288  -58.9526 H         1 MOL         0.1450
     34 H6        -46.1524  -19.2897  -56.2465 H         1 MOL         0.1409
     35 H7        -41.7818  -16.9777  -56.6879 H         1 MOL         0.1467
     36 H8        -41.5332  -14.2708  -59.8887 H         1 MOL         0.1542
     37 H9        -40.6874   -8.4145  -60.3190 H         1 MOL         0.1438
     38 H10       -44.4174  -15.1273  -56.7704 H         1 MOL         0.1523
     39 H11       -39.3032   -5.9092  -56.3443 H         1 MOL         0.0235
     40 H12       -41.7421  -10.0093  -58.8381 H         1 MOL         0.1617
     41 H13       -41.5796   -9.3728  -55.8291 H         1 MOL         0.1330
     42 H14       -48.2890  -19.5302  -59.7436 H         1 MOL         0.0431
     43 H15       -47.0411  -20.1826  -60.8285 H         1 MOL         0.0431
     44 H16       -47.3293  -18.4307  -60.7583 H         1 MOL         0.0431
     45 H17       -44.6618  -12.8578  -55.0020 H         1 MOL         0.4865
     46 H18       -45.8602  -20.0847  -58.8087 H         1 MOL         0.3101
@<TRIPOS>BOND
     1    1    2 ar
     2    1    6 ar
     3    2    7 ar
     4    3    4 ar
     5    3    9 ar
     6    4   11 ar
     7    5    8 ar
     8    5   12 ar
     9    6   13 ar
    10    7   16 ar
    11    8   15 ar
    12    9   17 ar
    13   10   14 ar
    14   10   15 ar
    15   11   23 ar
    16   12   14 ar
    17   12   18 1
    18   13   16 ar
    19   13   21 1
    20   14   25 1
    21   15   28 1
    22   16   28 1
    23   17   19 1
    24   17   23 ar
    25   18   20 1
    26   18   24 2
    27   19   20 2
    28   21   26 am
    29   21   27 2
    30   22   26 1
    31   24   25 1
    32    1   29 1
    33    2   30 1
    34    3   31 1
    35    4   32 1
    36    5   33 1
    37    6   34 1
    38    7   35 1
    39    8   36 1
    40    9   37 1
    41   10   38 1
    42   11   39 1
    43   19   40 1
    44   20   41 1
    45   22   42 1
    46   22   43 1
    47   22   44 1
    48   25   45 1
    49   26   46 1
