@<TRIPOS>MOLECULE
3-(2-imidazo[1,2-b]pyridazin-3-ylethynyl)-4-methyl-~{N}-[4-[(4-methylpiperazin-1-yl)methyl]-3-(trifluoromethyl)phenyl]benzamide
   66    70     0     0     0
SMALL
USER_CHARGES

@<TRIPOS>ATOM
      1 C1        -40.8739   -8.7122  -58.2078 C.1       1 MOL        -0.0824
      2 C2        -41.2178   -9.8632  -58.2181 C.1       1 MOL        -0.0641
      3 C3        -39.7089   -4.6553  -58.1958 C.ar      1 MOL        -0.0928
      4 C4        -38.8892   -5.6103  -57.5945 C.ar      1 MOL        -0.1469
      5 C5        -41.4426    0.0911  -62.0609 C.ar      1 MOL        -0.0989
      6 C6        -40.8983   -1.0392  -61.4512 C.ar      1 MOL        -0.1357
      7 C7        -41.2841   -6.3857  -58.7970 C.ar      1 MOL        -0.0422
      8 C8        -42.9376   -1.3419  -60.1915 C.ar      1 MOL        -0.1519
      9 C9        -41.3869  -12.1888  -59.1889 C.2       1 MOL         0.3660
     10 C10       -40.4643   -7.3408  -58.1957 C.ar      1 MOL         0.0162
     11 C11       -41.6274  -11.2337  -58.2305 C.2       1 MOL        -0.0904
     12 C12       -40.9064   -5.0430  -58.7970 C.ar      1 MOL        -0.1640
     13 C13       -39.2669   -6.9531  -57.5945 C.ar      1 MOL        -0.0177
     14 C14       -42.7344    0.5050  -61.7359 C.ar      1 MOL        -0.0515
     15 C15       -43.4819   -0.2115  -60.8012 C.ar      1 MOL        -0.1397
     16 C16       -41.6457   -1.7557  -60.5165 C.ar      1 MOL         0.0687
     17 C17       -42.5270  -13.1814  -57.6778 C.2       1 MOL         0.4191
     18 C18       -43.2610  -14.0397  -56.8260 C.2       1 MOL        -0.1548
     19 C19       -43.7538  -13.5651  -55.6761 C.2       1 MOL        -0.2590
     20 C20       -43.4877  -12.1385  -55.3726 C.2       1 MOL         0.3952
     21 C21       -41.7711   -4.0331  -59.4311 C.2       1 MOL         0.6862
     22 C22       -41.9454    3.9403  -65.1444 C.3       1 MOL         0.1713
     23 C23       -41.9830    1.6647  -65.9419 C.3       1 MOL         0.1713
     24 C24       -42.7678    3.5245  -63.9198 C.3       1 MOL         0.1758
     25 C25       -42.8043    1.2491  -64.7165 C.3       1 MOL         0.1758
     26 C26       -38.3629   -7.9490  -56.9413 C.3       1 MOL        -0.0720
     27 C27       -41.4485    3.4642  -67.4556 C.3       1 MOL         0.1616
     28 C28       -43.2986    1.7250  -62.4047 C.3       1 MOL         0.2178
     29 C29       -44.8677    0.2117  -60.4392 C.3       1 MOL         0.6849
     30 N1        -41.9460  -13.3921  -58.8416 N.2       1 MOL        -0.6481
     31 N2        -42.8236  -11.3069  -56.1135 N.2       1 MOL        -0.4848
     32 N3        -42.3581  -11.8716  -57.2631 N.pl3     1 MOL         0.0695
     33 N4        -42.2355    3.0684  -66.2893 N.3       1 MOL        -0.7397
     34 N5        -42.5134    2.1212  -63.5720 N.3       1 MOL        -0.7542
     35 N6        -41.1024   -2.8874  -59.9079 N.am      1 MOL        -0.4697
     36 O1        -42.9883   -4.1919  -59.4936 O.2       1 MOL        -0.5824
     37 F1        -45.4604   -0.5969  -59.5126 F         1 MOL        -0.2397
     38 F2        -44.9328    1.4687  -59.9110 F         1 MOL        -0.2397
     39 F3        -45.7094    0.2195  -61.5126 F         1 MOL        -0.2397
     40 H1        -39.4046   -3.6116  -58.1886 H         1 MOL         0.1379
     41 H2        -37.9583   -5.2973  -57.1289 H         1 MOL         0.1431
     42 H3        -40.8519    0.6433  -62.7872 H         1 MOL         0.1638
     43 H4        -39.8903   -1.3514  -61.7117 H         1 MOL         0.1821
     44 H5        -42.2200   -6.6822  -59.2673 H         1 MOL         0.1676
     45 H6        -43.5213   -1.9001  -59.4626 H         1 MOL         0.1446
     46 H7        -40.8388  -12.0767  -60.1139 H         1 MOL         0.0561
     47 H8        -43.4172  -15.0737  -57.1126 H         1 MOL         0.1708
     48 H9        -44.3229  -14.1633  -54.9779 H         1 MOL         0.1577
     49 H10       -43.9081  -11.7798  -54.4190 H         1 MOL         0.0530
     50 H11       -42.1535    4.9907  -65.3892 H         1 MOL         0.0366
     51 H12       -40.8820    3.8703  -64.8854 H         1 MOL         0.0366
     52 H13       -40.9204    1.5264  -65.7075 H         1 MOL         0.0366
     53 H14       -42.2196    1.0031  -66.7865 H         1 MOL         0.0366
     54 H15       -42.5330    4.1865  -63.0753 H         1 MOL         0.0399
     55 H16       -43.8302    3.6610  -64.1556 H         1 MOL         0.0399
     56 H17       -43.8680    1.3195  -64.9748 H         1 MOL         0.0399
     57 H18       -42.5967    0.1984  -64.4717 H         1 MOL         0.0399
     58 H19       -38.6264   -8.0625  -55.8840 H         1 MOL         0.0566
     59 H20       -38.4371   -8.9284  -57.4286 H         1 MOL         0.0566
     60 H21       -37.3146   -7.6351  -57.0102 H         1 MOL         0.0566
     61 H22       -41.6731    2.8081  -68.3007 H         1 MOL         0.0319
     62 H23       -40.3804    3.3963  -67.2316 H         1 MOL         0.0319
     63 H24       -41.6826    4.4942  -67.7378 H         1 MOL         0.0319
     64 H25       -44.3268    1.5432  -62.7358 H         1 MOL         0.0561
     65 H26       -43.3245    2.5749  -61.7146 H         1 MOL         0.0561
     66 H27       -40.0824   -2.8855  -59.7922 H         1 MOL         0.3224
@<TRIPOS>BOND
     1    1    2 3
     2    1   10 1
     3    2   11 1
     4    3    4 ar
     5    3   12 ar
     6    4   13 ar
     7    5    6 ar
     8    5   14 ar
     9    6   16 ar
    10    7   10 ar
    11    7   12 ar
    12    8   15 ar
    13    8   16 ar
    14    9   11 2
    15    9   30 1
    16   10   13 ar
    17   11   32 1
    18   12   21 1
    19   13   26 1
    20   14   15 ar
    21   14   28 1
    22   15   29 1
    23   16   35 1
    24   17   18 1
    25   17   30 2
    26   17   32 1
    27   18   19 2
    28   19   20 1
    29   20   31 2
    30   21   35 am
    31   21   36 2
    32   22   24 1
    33   22   33 1
    34   23   25 1
    35   23   33 1
    36   24   34 1
    37   25   34 1
    38   27   33 1
    39   28   34 1
    40   29   37 1
    41   29   38 1
    42   29   39 1
    43   31   32 1
    44    3   40 1
    45    4   41 1
    46    5   42 1
    47    6   43 1
    48    7   44 1
    49    8   45 1
    50    9   46 1
    51   18   47 1
    52   19   48 1
    53   20   49 1
    54   22   50 1
    55   22   51 1
    56   23   52 1
    57   23   53 1
    58   24   54 1
    59   24   55 1
    60   25   56 1
    61   25   57 1
    62   26   58 1
    63   26   59 1
    64   26   60 1
    65   27   61 1
    66   27   62 1
    67   27   63 1
    68   28   64 1
    69   28   65 1
    70   35   66 1
