@<TRIPOS>MOLECULE
4-methyl-~{N}-[3-(4-methylimidazol-1-yl)-5-(trifluoromethyl)phenyl]-3-[[4-(3-pyridyl)pyrimidin-2-yl]amino]benzamide
   61    65     0     0     0
SMALL
USER_CHARGES

@<TRIPOS>ATOM
      1 C1        -40.1393  -13.8501  -61.3556 C.ar      1 MOL        -0.2497
      2 C2        -40.9828  -14.7124  -60.6641 C.ar      1 MOL        -0.0689
      3 C3        -43.0384  -13.3808  -54.8931 C.ar      1 MOL        -0.1076
      4 C4        -43.3399  -14.6267  -54.3432 C.ar      1 MOL        -0.1323
      5 C5        -43.3852  -17.4210  -61.2977 C.ar      1 MOL        -0.4094
      6 C6        -43.5455  -14.2308  -57.0971 C.ar      1 MOL        -0.0857
      7 C7        -41.1584   -8.6958  -60.5942 C.ar      1 MOL        -0.1478
      8 C8        -41.3786   -9.7068  -58.4110 C.ar      1 MOL        -0.1645
      9 C9        -42.1583  -10.8839  -60.3716 C.ar      1 MOL        -0.1773
     10 C10       -40.3204  -13.7242  -62.7235 C.ar      1 MOL         0.4043
     11 C11       -44.2239  -18.2058  -60.5328 C.ar      1 MOL         0.4615
     12 C12       -42.0671  -15.2165  -62.7199 C.ar      1 MOL         0.4315
     13 C13       -41.5898   -8.9072  -63.4463 C.2       1 MOL        -0.2484
     14 C14       -42.5004  -10.9036  -63.2414 C.2       1 MOL         0.4179
     15 C15       -41.9678  -15.4125  -61.3519 C.ar      1 MOL        -0.2761
     16 C16       -43.1412  -13.1828  -56.2701 C.ar      1 MOL        -0.1496
     17 C17       -43.7441  -15.6747  -55.1703 C.ar      1 MOL        -0.0273
     18 C18       -40.9720   -8.6404  -59.2130 C.ar      1 MOL        -0.1084
     19 C19       -41.7516   -9.8175  -61.1735 C.ar      1 MOL         0.0653
     20 C20       -43.8469  -15.4767  -56.5472 C.ar      1 MOL         0.1433
     21 C21       -41.9718  -10.8286  -58.9903 C.ar      1 MOL         0.1042
     22 C22       -42.8583  -16.3151  -60.6624 C.ar      1 MOL         0.5378
     23 C23       -41.9693   -9.4145  -64.6666 C.2       1 MOL         0.3180
     24 C24       -43.9545  -16.8345  -58.7400 C.ar      1 MOL         0.8952
     25 C25       -42.8263  -11.8838  -56.8432 C.2       1 MOL         0.6903
     26 C26       -44.0575  -16.9996  -54.5546 C.3       1 MOL        -0.0655
     27 C27       -41.8307   -8.7939  -65.9928 C.3       1 MOL        -0.1179
     28 C28       -40.3372   -7.4415  -58.5936 C.3       1 MOL         0.6863
     29 N1        -41.2659  -14.3875  -63.4260 N.ar      1 MOL        -0.6655
     30 N2        -44.5315  -17.9411  -59.2461 N.ar      1 MOL        -0.7354
     31 N3        -42.5357  -10.6574  -64.5322 N.2       1 MOL        -0.6553
     32 N4        -43.1227  -15.9905  -59.3798 N.ar      1 MOL        -0.7505
     33 N5        -41.9368   -9.8721  -62.5431 N.pl3     1 MOL        -0.1500
     34 N6        -44.2526  -16.5272  -57.3996 N.pl3     1 MOL        -0.7542
     35 N7        -42.3847  -11.9125  -58.1751 N.am      1 MOL        -0.4714
     36 O1        -42.9131  -10.8410  -56.1800 O.2       1 MOL        -0.5843
     37 F1        -39.9896   -6.4777  -59.4971 F         1 MOL        -0.2343
     38 F2        -41.1367   -6.8068  -57.6860 F         1 MOL        -0.2343
     39 F3        -39.1885   -7.7438  -57.9211 F         1 MOL        -0.2343
     40 H1        -39.3649  -13.2932  -60.8407 H         1 MOL         0.1476
     41 H2        -40.8610  -14.8289  -59.5900 H         1 MOL         0.1450
     42 H3        -42.7247  -12.5710  -54.2394 H         1 MOL         0.1353
     43 H4        -43.2576  -14.7702  -53.2691 H         1 MOL         0.1446
     44 H5        -43.1644  -17.6696  -62.3283 H         1 MOL         0.1595
     45 H6        -43.6240  -14.0765  -58.1712 H         1 MOL         0.1655
     46 H7        -40.8398   -7.8615  -61.2157 H         1 MOL         0.1577
     47 H8        -41.2314   -9.6619  -57.3343 H         1 MOL         0.1543
     48 H9        -42.6217  -11.7599  -60.8212 H         1 MOL         0.1882
     49 H10       -39.6879  -13.0645  -63.3088 H         1 MOL         0.0247
     50 H11       -44.6859  -19.0961  -60.9460 H         1 MOL         0.0298
     51 H12       -42.8156  -15.7322  -63.3147 H         1 MOL         0.0338
     52 H13       -41.1214   -7.9758  -63.1570 H         1 MOL         0.1810
     53 H14       -42.8661  -11.8028  -62.7631 H         1 MOL         0.0753
     54 H15       -45.1177  -17.0496  -54.2817 H         1 MOL         0.0563
     55 H16       -43.8351  -17.8203  -55.2473 H         1 MOL         0.0563
     56 H17       -43.4555  -17.1695  -53.6537 H         1 MOL         0.0563
     57 H18       -40.8673   -9.0592  -66.4627 H         1 MOL         0.0493
     58 H19       -42.6334   -9.1040  -66.6866 H         1 MOL         0.0493
     59 H20       -41.8835   -7.6907  -65.9468 H         1 MOL         0.0493
     60 H21       -44.8828  -17.1878  -56.9561 H         1 MOL         0.4662
     61 H22       -42.3572  -12.8303  -58.6124 H         1 MOL         0.3248
@<TRIPOS>BOND
     1    1    2 ar
     2    1   10 ar
     3    2   15 ar
     4    3    4 ar
     5    3   16 ar
     6    4   17 ar
     7    5   11 ar
     8    5   22 ar
     9    6   16 ar
    10    6   20 ar
    11    7   18 ar
    12    7   19 ar
    13    8   18 ar
    14    8   21 ar
    15    9   19 ar
    16    9   21 ar
    17   10   29 ar
    18   11   30 ar
    19   12   15 ar
    20   12   29 ar
    21   13   23 2
    22   13   33 1
    23   14   31 2
    24   14   33 1
    25   15   22 1
    26   16   25 1
    27   17   20 ar
    28   17   26 1
    29   18   28 1
    30   19   33 1
    31   20   34 1
    32   21   35 1
    33   22   32 ar
    34   23   27 1
    35   23   31 1
    36   24   30 ar
    37   24   32 ar
    38   24   34 1
    39   25   35 am
    40   25   36 2
    41   28   37 1
    42   28   38 1
    43   28   39 1
    44    1   40 1
    45    2   41 1
    46    3   42 1
    47    4   43 1
    48    5   44 1
    49    6   45 1
    50    7   46 1
    51    8   47 1
    52    9   48 1
    53   10   49 1
    54   11   50 1
    55   12   51 1
    56   13   52 1
    57   14   53 1
    58   26   54 1
    59   26   55 1
    60   26   56 1
    61   27   57 1
    62   27   58 1
    63   27   59 1
    64   34   60 1
    65   35   61 1
