@<TRIPOS>MOLECULE
~{N}-methyl-2-[[3-[(~{E})-2-(2-pyridyl)vinyl]-1~{H}-indazol-6-yl]sulfanyl]benzamide
   46    49     0     0     0
SMALL
USER_CHARGES

@<TRIPOS>ATOM
      1 C1        -45.4963   -1.4927  -58.8012 C.ar      1 MOL        -0.1467
      2 C2        -44.2690   -1.4276  -58.1417 C.ar      1 MOL        -0.0974
      3 C3        -33.8926   -2.7593  -66.1726 C.ar      1 MOL        -0.0928
      4 C4        -33.9510   -4.0215  -65.5924 C.ar      1 MOL        -0.2453
      5 C5        -39.6329   -0.5568  -61.7801 C.ar      1 MOL        -0.0799
      6 C6        -45.7989   -0.5718  -59.8042 C.ar      1 MOL        -0.0939
      7 C7        -43.3442   -0.4415  -58.4851 C.ar      1 MOL        -0.1576
      8 C8        -40.3875    0.1092  -60.8062 C.ar      1 MOL        -0.1081
      9 C9        -34.9785   -1.8980  -66.0608 C.ar      1 MOL        -0.2368
     10 C10       -41.8781    1.0291  -62.4974 C.ar      1 MOL        -0.0800
     11 C11       -35.1088   -4.3717  -64.9166 C.ar      1 MOL         0.3986
     12 C12       -40.0095   -0.4248  -63.1271 C.ar      1 MOL        -0.1733
     13 C13       -44.8741    0.4143  -60.1477 C.ar      1 MOL        -0.1327
     14 C14       -41.1122    0.3571  -63.4526 C.ar      1 MOL         0.0548
     15 C15       -41.4906    0.8881  -61.1608 C.ar      1 MOL        -0.0350
     16 C16       -43.6467    0.4795  -59.4881 C.ar      1 MOL         0.0286
     17 C17       -36.0903   -2.3434  -65.3643 C.ar      1 MOL         0.4459
     18 C18       -39.5432   -0.9064  -64.3693 C.2       1 MOL         0.3775
     19 C19       -37.2663   -1.4676  -65.2175 C.2       1 MOL        -0.1979
     20 C20       -38.4182   -1.7577  -64.5260 C.2       1 MOL        -0.1776
     21 C21       -45.2432    1.3510  -61.2032 C.2       1 MOL         0.6672
     22 C22       -45.6546    3.7505  -61.7861 C.3       1 MOL         0.0802
     23 N1        -36.1838   -3.5623  -64.7871 N.ar      1 MOL        -0.6566
     24 N2        -40.2750   -0.4763  -65.3997 N.2       1 MOL        -0.3948
     25 N3        -41.2154    0.2848  -64.8156 N.pl3     1 MOL        -0.3861
     26 N4        -45.2844    2.7051  -60.8593 N.am      1 MOL        -0.5743
     27 O1        -45.5231    0.9364  -62.3396 O.2       1 MOL        -0.5831
     28 S1        -42.4264    1.7210  -59.8875 S.3       1 MOL        -0.0864
     29 H1        -46.2169   -2.2600  -58.5328 H         1 MOL         0.1379
     30 H2        -44.0340   -2.1440  -57.3600 H         1 MOL         0.1360
     31 H3        -33.0018   -2.4475  -66.7096 H         1 MOL         0.1387
     32 H4        -33.1167   -4.7093  -65.6675 H         1 MOL         0.1440
     33 H5        -38.7777   -1.1589  -61.4884 H         1 MOL         0.1450
     34 H6        -46.7596   -0.6334  -60.3099 H         1 MOL         0.1409
     35 H7        -42.3945   -0.4083  -57.9569 H         1 MOL         0.1467
     36 H8        -40.0931    0.0049  -59.7638 H         1 MOL         0.1542
     37 H9        -34.9400   -0.9112  -66.5110 H         1 MOL         0.1438
     38 H10       -42.7324    1.6301  -62.7918 H         1 MOL         0.1523
     39 H11       -35.2054   -5.3454  -64.4476 H         1 MOL         0.0235
     40 H12       -37.1745   -0.4910  -65.6868 H         1 MOL         0.1617
     41 H13       -38.4473   -2.7470  -64.0205 H         1 MOL         0.1330
     42 H14       -44.7608    4.1726  -62.2528 H         1 MOL         0.0431
     43 H15       -46.1883    4.5483  -61.2625 H         1 MOL         0.0431
     44 H16       -46.3041    3.3492  -62.5686 H         1 MOL         0.0431
     45 H17       -41.9046    0.7310  -65.4079 H         1 MOL         0.4865
     46 H18       -45.1073    2.9812  -59.8990 H         1 MOL         0.3101
@<TRIPOS>BOND
     1    1    2 ar
     2    1    6 ar
     3    2    7 ar
     4    3    4 ar
     5    3    9 ar
     6    4   11 ar
     7    5    8 ar
     8    5   12 ar
     9    6   13 ar
    10    7   16 ar
    11    8   15 ar
    12    9   17 ar
    13   10   14 ar
    14   10   15 ar
    15   11   23 ar
    16   12   14 ar
    17   12   18 1
    18   13   16 ar
    19   13   21 1
    20   14   25 1
    21   15   28 1
    22   16   28 1
    23   17   19 1
    24   17   23 ar
    25   18   20 1
    26   18   24 2
    27   19   20 2
    28   21   26 am
    29   21   27 2
    30   22   26 1
    31   24   25 1
    32    1   29 1
    33    2   30 1
    34    3   31 1
    35    4   32 1
    36    5   33 1
    37    6   34 1
    38    7   35 1
    39    8   36 1
    40    9   37 1
    41   10   38 1
    42   11   39 1
    43   19   40 1
    44   20   41 1
    45   22   42 1
    46   22   43 1
    47   22   44 1
    48   25   45 1
    49   26   46 1
