@<TRIPOS>MOLECULE
~{N}-(3-ethynylphenyl)-6,7-bis(2-methoxyethoxy)quinazolin-4-amine
   52    54     0     0     0
SMALL
USER_CHARGES

@<TRIPOS>ATOM
      1 C1        -37.9600   -7.0006  -56.7832 C.1       1 MOL        -0.1333
      2 C2        -38.9653   -6.6025  -57.3053 C.1       1 MOL        -0.1268
      3 C3        -42.4423   -6.5021  -58.6309 C.ar      1 MOL        -0.1106
      4 C4        -41.2741   -6.9643  -58.0249 C.ar      1 MOL        -0.1283
      5 C5        -42.4981   -5.2040  -59.1386 C.ar      1 MOL        -0.1307
      6 C6        -40.2176   -4.8304  -58.4340 C.ar      1 MOL        -0.1551
      7 C7        -41.4148   -1.1543  -61.6695 C.ar      1 MOL        -0.1186
      8 C8        -43.5594    0.6009  -61.8601 C.ar      1 MOL        -0.2564
      9 C9        -44.4948   -1.3264  -58.9848 C.ar      1 MOL         0.6704
     10 C10       -40.1618   -6.1284  -57.9264 C.ar      1 MOL         0.0467
     11 C11       -42.4710   -1.2177  -60.7439 C.ar      1 MOL        -0.3025
     12 C12       -43.5608   -0.3360  -60.8296 C.ar      1 MOL         0.4581
     13 C13       -41.3858   -4.3682  -59.0401 C.ar      1 MOL         0.1660
     14 C14       -41.4394   -0.2082  -62.6894 C.ar      1 MOL         0.0835
     15 C15       -42.5129    0.6703  -62.7844 C.ar      1 MOL         0.1515
     16 C16       -42.5078   -2.1395  -59.7014 C.ar      1 MOL         0.7169
     17 C17       -38.2971    0.3293  -67.0648 C.3       1 MOL         0.1162
     18 C18       -42.6051    5.2889  -63.8434 C.3       1 MOL         0.1202
     19 C19       -40.1649   -1.3225  -64.3597 C.3       1 MOL         0.1265
     20 C20       -43.6935    2.4668  -63.8014 C.3       1 MOL         0.1161
     21 C21       -39.0082   -1.0537  -65.3029 C.3       1 MOL         0.1180
     22 C22       -43.5468    3.4434  -64.9524 C.3       1 MOL         0.1233
     23 N1        -44.5763   -0.3880  -59.9499 N.ar      1 MOL        -0.7145
     24 N2        -43.5080   -2.2188  -58.8037 N.ar      1 MOL        -0.7616
     25 N3        -41.4425   -3.0619  -59.5511 N.pl3     1 MOL        -0.7646
     26 O1        -40.4133   -0.1523  -63.5823 O.3       1 MOL        -0.3242
     27 O2        -42.5577    1.6049  -63.7748 O.3       1 MOL        -0.3103
     28 O3        -39.3564    0.0183  -66.1706 O.3       1 MOL        -0.4209
     29 O4        -42.3736    4.2226  -64.7533 O.3       1 MOL        -0.4269
     30 H1        -37.0684   -7.3533  -56.3199 H         1 MOL         0.1679
     31 H2        -43.3085   -7.1528  -58.7076 H         1 MOL         0.1379
     32 H3        -41.2461   -7.9786  -57.6340 H         1 MOL         0.1416
     33 H4        -43.4135   -4.8542  -59.6089 H         1 MOL         0.1512
     34 H5        -39.3520   -4.1748  -58.3593 H         1 MOL         0.1397
     35 H6        -40.5673   -1.8332  -61.6103 H         1 MOL         0.1429
     36 H7        -44.3916    1.2973  -61.9508 H         1 MOL         0.1673
     37 H8        -45.3160   -1.3630  -58.2794 H         1 MOL         0.0545
     38 H9        -38.5982    1.1546  -67.7146 H         1 MOL         0.0357
     39 H10       -38.0554   -0.5515  -67.6650 H         1 MOL         0.0357
     40 H11       -37.4189    0.6257  -66.4863 H         1 MOL         0.0357
     41 H12       -41.6855    5.8650  -63.7144 H         1 MOL         0.0354
     42 H13       -42.9322    4.8844  -62.8822 H         1 MOL         0.0354
     43 H14       -43.3853    5.9382  -64.2477 H         1 MOL         0.0354
     44 H15       -39.9327   -2.1438  -63.6747 H         1 MOL         0.0523
     45 H16       -41.0721   -1.5581  -64.9238 H         1 MOL         0.0523
     46 H17       -44.5882    1.8481  -63.9205 H         1 MOL         0.0609
     47 H18       -43.7396    3.0023  -62.8486 H         1 MOL         0.0609
     48 H19       -38.7879   -1.9320  -65.9177 H         1 MOL         0.0444
     49 H20       -38.1155   -0.7638  -64.7411 H         1 MOL         0.0444
     50 H21       -44.4029    4.1234  -65.0045 H         1 MOL         0.0457
     51 H22       -43.4447    2.9060  -65.8997 H         1 MOL         0.0457
     52 H23       -40.5534   -2.7031  -59.8782 H         1 MOL         0.4489
@<TRIPOS>BOND
     1    1    2 3
     2    2   10 1
     3    3    4 ar
     4    3    5 ar
     5    4   10 ar
     6    5   13 ar
     7    6   10 ar
     8    6   13 ar
     9    7   11 ar
    10    7   14 ar
    11    8   12 ar
    12    8   15 ar
    13    9   23 ar
    14    9   24 ar
    15   11   12 ar
    16   11   16 ar
    17   12   23 ar
    18   13   25 1
    19   14   15 ar
    20   14   26 1
    21   15   27 1
    22   16   24 ar
    23   16   25 1
    24   17   28 1
    25   18   29 1
    26   19   21 1
    27   19   26 1
    28   20   22 1
    29   20   27 1
    30   21   28 1
    31   22   29 1
    32    1   30 1
    33    3   31 1
    34    4   32 1
    35    5   33 1
    36    6   34 1
    37    7   35 1
    38    8   36 1
    39    9   37 1
    40   17   38 1
    41   17   39 1
    42   17   40 1
    43   18   41 1
    44   18   42 1
    45   18   43 1
    46   19   44 1
    47   19   45 1
    48   20   46 1
    49   20   47 1
    50   21   48 1
    51   21   49 1
    52   22   50 1
    53   22   51 1
    54   25   52 1
