@<TRIPOS>MOLECULE
4-methyl-~{N}-[3-(4-methylimidazol-1-yl)-5-(trifluoromethyl)phenyl]-3-[[4-(3-pyridyl)pyrimidin-2-yl]amino]benzamide
   61    65     0     0     0
SMALL
USER_CHARGES

@<TRIPOS>ATOM
      1 C1        -42.1908  -15.2773  -60.7270 C.ar      1 MOL        -0.2497
      2 C2        -42.0922  -14.5692  -59.5344 C.ar      1 MOL        -0.0689
      3 C3        -39.7032   -8.3109  -59.6715 C.ar      1 MOL        -0.1076
      4 C4        -39.2752   -8.1651  -58.3520 C.ar      1 MOL        -0.1323
      5 C5        -43.7781  -13.8667  -56.5105 C.ar      1 MOL        -0.4094
      6 C6        -41.4667   -9.7896  -58.9361 C.ar      1 MOL        -0.0857
      7 C7        -43.4264  -11.8333  -65.3035 C.ar      1 MOL        -0.1478
      8 C8        -43.0413  -12.1820  -62.9441 C.ar      1 MOL        -0.1645
      9 C9        -42.2941  -10.1422  -64.0015 C.ar      1 MOL        -0.1773
     10 C10       -43.4568  -15.5160  -61.2367 C.ar      1 MOL         0.4043
     11 C11       -43.6419  -13.0710  -55.3913 C.ar      1 MOL         0.4615
     12 C12       -44.4653  -14.4178  -59.4888 C.ar      1 MOL         0.4315
     13 C13       -42.0941   -8.5679  -66.4197 C.2       1 MOL        -0.2484
     14 C14       -43.1260  -10.1122  -67.6058 C.2       1 MOL         0.4179
     15 C15       -43.2465  -14.1277  -58.8970 C.ar      1 MOL        -0.2761
     16 C16       -40.7990   -9.1231  -59.9636 C.ar      1 MOL        -0.1496
     17 C17       -39.9429   -8.8315  -57.3245 C.ar      1 MOL        -0.0273
     18 C18       -43.5470  -12.6294  -64.1646 C.ar      1 MOL        -0.1084
     19 C19       -42.7999  -10.5897  -65.2220 C.ar      1 MOL         0.0653
     20 C20       -41.0387   -9.6437  -57.6165 C.ar      1 MOL         0.1433
     21 C21       -42.4148  -10.9383  -62.8626 C.ar      1 MOL         0.1042
     22 C22       -43.1770  -13.3909  -57.6579 C.ar      1 MOL         0.5378
     23 C23       -42.2191   -8.1910  -67.7361 C.2       1 MOL         0.3180
     24 C24       -42.4312  -11.5444  -56.5619 C.ar      1 MOL         0.8952
     25 C25       -41.2448   -9.2755  -61.3395 C.2       1 MOL         0.6903
     26 C26       -39.4608   -8.6598  -55.9207 C.3       1 MOL        -0.0655
     27 C27       -41.7597   -6.9480  -68.3742 C.3       1 MOL        -0.1179
     28 C28       -44.2175  -13.9587  -64.2515 C.3       1 MOL         0.6863
     29 N1        -44.6007  -15.1030  -60.6463 N.ar      1 MOL        -0.6655
     30 N2        -42.9727  -11.8995  -55.3813 N.ar      1 MOL        -0.7354
     31 N3        -42.8626   -9.1565  -68.4691 N.2       1 MOL        -0.6553
     32 N4        -42.4932  -12.2294  -57.7197 N.ar      1 MOL        -0.7505
     33 N5        -42.6800   -9.8004  -66.3515 N.pl3     1 MOL        -0.1500
     34 N6        -41.7251  -10.3275  -56.5889 N.pl3     1 MOL        -0.7542
     35 N7        -41.9011  -10.4835  -61.6219 N.am      1 MOL        -0.4714
     36 O1        -41.0226   -8.4083  -62.1959 O.2       1 MOL        -0.5843
     37 F1        -44.6636  -14.2661  -65.5055 F         1 MOL        -0.2343
     38 F2        -43.4113  -15.0021  -63.8949 F         1 MOL        -0.2343
     39 F3        -45.3124  -14.0487  -63.4414 F         1 MOL        -0.2343
     40 H1        -41.3051  -15.6307  -61.2422 H         1 MOL         0.1476
     41 H2        -41.1100  -14.3690  -59.1136 H         1 MOL         0.1450
     42 H3        -39.1759   -7.7868  -60.4643 H         1 MOL         0.1353
     43 H4        -38.4211   -7.5290  -58.1350 H         1 MOL         0.1446
     44 H5        -44.3243  -14.8011  -56.4753 H         1 MOL         0.1595
     45 H6        -42.3204  -10.4243  -59.1644 H         1 MOL         0.1655
     46 H7        -43.8224  -12.1865  -66.2534 H         1 MOL         0.1577
     47 H8        -43.1373  -12.8040  -62.0570 H         1 MOL         0.1543
     48 H9        -41.8045   -9.1725  -63.9356 H         1 MOL         0.1882
     49 H10       -43.5876  -16.0643  -62.1642 H         1 MOL         0.0247
     50 H11       -44.0805  -13.3624  -54.4428 H         1 MOL         0.0298
     51 H12       -45.4033  -14.1004  -59.0423 H         1 MOL         0.0338
     52 H13       -41.6553   -8.0799  -65.5595 H         1 MOL         0.1810
     53 H14       -43.6329  -11.0412  -67.8321 H         1 MOL         0.0753
     54 H15       -39.9648   -7.8092  -55.4481 H         1 MOL         0.0563
     55 H16       -39.6553   -9.5584  -55.3228 H         1 MOL         0.0563
     56 H17       -38.3783   -8.4852  -55.8928 H         1 MOL         0.0563
     57 H18       -40.7308   -7.0507  -68.7615 H         1 MOL         0.0493
     58 H19       -42.4036   -6.6492  -69.2216 H         1 MOL         0.0493
     59 H20       -41.7662   -6.0912  -67.6757 H         1 MOL         0.0493
     60 H21       -41.7038   -9.8440  -55.6968 H         1 MOL         0.4662
     61 H22       -42.0242  -11.1147  -60.8341 H         1 MOL         0.3248
@<TRIPOS>BOND
     1    1    2 ar
     2    1   10 ar
     3    2   15 ar
     4    3    4 ar
     5    3   16 ar
     6    4   17 ar
     7    5   11 ar
     8    5   22 ar
     9    6   16 ar
    10    6   20 ar
    11    7   18 ar
    12    7   19 ar
    13    8   18 ar
    14    8   21 ar
    15    9   19 ar
    16    9   21 ar
    17   10   29 ar
    18   11   30 ar
    19   12   15 ar
    20   12   29 ar
    21   13   23 2
    22   13   33 1
    23   14   31 2
    24   14   33 1
    25   15   22 1
    26   16   25 1
    27   17   20 ar
    28   17   26 1
    29   18   28 1
    30   19   33 1
    31   20   34 1
    32   21   35 1
    33   22   32 ar
    34   23   27 1
    35   23   31 1
    36   24   30 ar
    37   24   32 ar
    38   24   34 1
    39   25   35 am
    40   25   36 2
    41   28   37 1
    42   28   38 1
    43   28   39 1
    44    1   40 1
    45    2   41 1
    46    3   42 1
    47    4   43 1
    48    5   44 1
    49    6   45 1
    50    7   46 1
    51    8   47 1
    52    9   48 1
    53   10   49 1
    54   11   50 1
    55   12   51 1
    56   13   52 1
    57   14   53 1
    58   26   54 1
    59   26   55 1
    60   26   56 1
    61   27   57 1
    62   27   58 1
    63   27   59 1
    64   34   60 1
    65   35   61 1
