@<TRIPOS>MOLECULE
~{N}-(2-chloro-6-methyl-phenyl)-2-[[6-[4-(2-hydroxyethyl)piperazin-1-yl]-2-methyl-pyrimidin-4-yl]amino]thiazole-5-carboxamide
   59    62     0     0     0
SMALL
USER_CHARGES

@<TRIPOS>ATOM
      1 C1        -39.7133   -6.3152  -59.6528 C.ar      1 MOL        -0.1287
      2 C2        -39.1990   -6.8688  -58.4804 C.ar      1 MOL        -0.1206
      3 C3        -40.7124   -6.9841  -60.3601 C.ar      1 MOL        -0.1156
      4 C4        -43.2032  -16.7192  -56.4972 C.ar      1 MOL        -0.4498
      5 C5        -41.9658  -12.7685  -57.6177 C.2       1 MOL         0.4038
      6 C6        -39.6837   -8.0912  -58.0152 C.ar      1 MOL        -0.0505
      7 C7        -40.6828   -8.7600  -58.7224 C.ar      1 MOL         0.0591
      8 C8        -41.1972   -8.2064  -59.8948 C.ar      1 MOL        -0.0121
      9 C9        -42.1098  -11.6788  -56.7848 C.2       1 MOL        -0.3015
     10 C10       -43.3995  -18.0766  -56.6503 C.ar      1 MOL         0.6913
     11 C11       -43.6155  -16.1886  -55.2919 C.ar      1 MOL         0.7029
     12 C12       -44.3148  -18.2293  -54.5751 C.ar      1 MOL         0.6974
     13 C13       -42.8902  -13.7815  -55.9061 C.2       1 MOL         0.6643
     14 C14       -41.7585  -10.3140  -56.9898 C.2       1 MOL         0.7225
     15 C15       -41.8803  -18.1282  -58.6380 C.3       1 MOL         0.2004
     16 C16       -43.9043  -19.5174  -58.6075 C.3       1 MOL         0.2004
     17 C17       -42.4261  -17.3635  -59.8468 C.3       1 MOL         0.1686
     18 C18       -44.4230  -18.7460  -59.8295 C.3       1 MOL         0.1686
     19 C19       -39.1117   -8.6571  -56.7556 C.3       1 MOL        -0.0586
     20 C20       -44.9320  -19.0677  -53.5078 C.3       1 MOL        -0.1352
     21 C21       -43.8213  -17.5064  -61.8101 C.3       1 MOL         0.1713
     22 C22       -44.3424  -18.4884  -62.8526 C.3       1 MOL         0.1287
     23 N1        -42.4124  -13.9752  -57.1154 N.2       1 MOL        -0.6461
     24 N2        -43.9544  -18.8649  -55.7063 N.ar      1 MOL        -0.7652
     25 N3        -44.1774  -16.9171  -54.3051 N.ar      1 MOL        -0.7141
     26 N4        -42.9979  -18.6498  -57.8502 N.pl3     1 MOL        -0.7666
     27 N5        -43.3117  -18.2283  -60.6452 N.3       1 MOL        -0.7440
     28 N6        -41.1664  -10.0016  -58.2383 N.am      1 MOL        -0.4686
     29 N7        -43.4318  -14.7981  -55.0944 N.pl3     1 MOL        -0.8342
     30 O1        -41.9231   -9.4291  -56.1152 O.2       1 MOL        -0.5936
     31 O2        -44.8588  -17.7627  -63.9610 O.3       1 MOL        -0.6052
     32 S1        -42.8343  -12.1729  -55.3109 S.3       1 MOL        -0.0611
     33 Cl1       -42.4351   -8.9980  -60.8045 Cl        1 MOL        -0.1016
     34 H1        -39.3358   -5.3635  -60.0151 H         1 MOL         0.1385
     35 H2        -38.4210   -6.3394  -57.9366 H         1 MOL         0.1378
     36 H3        -41.1025   -6.5386  -61.2718 H         1 MOL         0.1483
     37 H4        -42.7543  -16.1096  -57.2730 H         1 MOL         0.1533
     38 H5        -41.5375  -12.7403  -58.6112 H         1 MOL         0.0463
     39 H6        -41.2732  -17.4488  -58.0349 H         1 MOL         0.0520
     40 H7        -41.2433  -18.9507  -58.9752 H         1 MOL         0.0520
     41 H8        -44.7534  -19.8117  -57.9913 H         1 MOL         0.0520
     42 H9        -43.3791  -20.4165  -58.9314 H         1 MOL         0.0520
     43 H10       -42.9628  -16.4718  -59.5054 H         1 MOL         0.0406
     44 H11       -41.5797  -17.0310  -60.4543 H         1 MOL         0.0406
     45 H12       -45.0731  -17.9261  -59.4955 H         1 MOL         0.0406
     46 H13       -45.0394  -19.4283  -60.4269 H         1 MOL         0.0406
     47 H14       -39.6842   -8.3076  -55.8892 H         1 MOL         0.0550
     48 H15       -39.1317   -9.7534  -56.7701 H         1 MOL         0.0550
     49 H16       -38.0644   -8.3577  -56.6278 H         1 MOL         0.0550
     50 H17       -44.1592  -19.4622  -52.8367 H         1 MOL         0.0649
     51 H18       -45.6487  -18.4890  -52.9105 H         1 MOL         0.0649
     52 H19       -45.4859  -19.9138  -53.9357 H         1 MOL         0.0649
     53 H20       -43.0151  -16.8881  -62.2330 H         1 MOL         0.0481
     54 H21       -44.6361  -16.8396  -61.4916 H         1 MOL         0.0481
     55 H22       -45.1533  -19.0962  -62.4394 H         1 MOL         0.0292
     56 H23       -43.5446  -19.1500  -63.2057 H         1 MOL         0.0292
     57 H24       -41.0412  -10.7795  -58.8814 H         1 MOL         0.3237
     58 H25       -43.7548  -14.4684  -54.1890 H         1 MOL         0.4580
     59 H26       -45.1794  -18.4192  -64.6001 H         1 MOL         0.4026
@<TRIPOS>BOND
     1    1    2 ar
     2    1    3 ar
     3    2    6 ar
     4    3    8 ar
     5    4   10 ar
     6    4   11 ar
     7    5    9 2
     8    5   23 1
     9    6    7 ar
    10    6   19 1
    11    7    8 ar
    12    7   28 1
    13    8   33 1
    14    9   14 1
    15    9   32 1
    16   10   24 ar
    17   10   26 1
    18   11   25 ar
    19   11   29 1
    20   12   20 1
    21   12   24 ar
    22   12   25 ar
    23   13   23 2
    24   13   29 1
    25   13   32 1
    26   14   28 am
    27   14   30 2
    28   15   17 1
    29   15   26 1
    30   16   18 1
    31   16   26 1
    32   17   27 1
    33   18   27 1
    34   21   22 1
    35   21   27 1
    36   22   31 1
    37    1   34 1
    38    2   35 1
    39    3   36 1
    40    4   37 1
    41    5   38 1
    42   15   39 1
    43   15   40 1
    44   16   41 1
    45   16   42 1
    46   17   43 1
    47   17   44 1
    48   18   45 1
    49   18   46 1
    50   19   47 1
    51   19   48 1
    52   19   49 1
    53   20   50 1
    54   20   51 1
    55   20   52 1
    56   21   53 1
    57   21   54 1
    58   22   55 1
    59   22   56 1
    60   28   57 1
    61   29   58 1
    62   31   59 1
