@<TRIPOS>MOLECULE
~{N}-(2-chloro-6-methyl-phenyl)-2-[[6-[4-(2-hydroxyethyl)piperazin-1-yl]-2-methyl-pyrimidin-4-yl]amino]thiazole-5-carboxamide
   59    62     0     0     0
SMALL
USER_CHARGES

@<TRIPOS>ATOM
      1 C1        -34.6654   -6.5642  -57.3809 C.ar      1 MOL        -0.1287
      2 C2        -34.2036   -6.5148  -56.0656 C.ar      1 MOL        -0.1206
      3 C3        -35.9380   -7.0653  -57.6549 C.ar      1 MOL        -0.1156
      4 C4        -40.2998  -12.3265  -48.3771 C.ar      1 MOL        -0.4498
      5 C5        -39.7779   -7.6417  -51.6964 C.2       1 MOL         0.4038
      6 C6        -35.0143   -6.9666  -55.0244 C.ar      1 MOL        -0.0505
      7 C7        -36.2869   -7.4679  -55.2984 C.ar      1 MOL         0.0591
      8 C8        -36.7487   -7.5172  -56.6137 C.ar      1 MOL        -0.0121
      9 C9        -38.9221   -8.1234  -52.6648 C.2       1 MOL        -0.3015
     10 C10       -41.0271  -12.5261  -47.2214 C.ar      1 MOL         0.6913
     11 C11       -40.3937  -11.0663  -48.9314 C.ar      1 MOL         0.7029
     12 C12       -41.7997  -10.3890  -47.2786 C.ar      1 MOL         0.6974
     13 C13       -39.5305   -9.6825  -50.9323 C.2       1 MOL         0.6643
     14 C14       -38.3741   -7.4770  -53.8093 C.2       1 MOL         0.7225
     15 C15       -40.1356  -14.8385  -47.2395 C.3       1 MOL         0.2004
     16 C16       -42.1259  -14.2618  -45.8705 C.3       1 MOL         0.2004
     17 C17       -39.7946  -15.9222  -46.2136 C.3       1 MOL         0.1686
     18 C18       -41.7201  -15.3631  -44.8883 C.3       1 MOL         0.1686
     19 C19       -34.4902   -6.8994  -53.6263 C.3       1 MOL        -0.0586
     20 C20       -42.6326   -9.3131  -46.6687 C.3       1 MOL        -0.1352
     21 C21       -40.6744  -17.5182  -44.6392 C.3       1 MOL         0.1713
     22 C22       -40.4135  -18.8024  -45.4050 C.3       1 MOL         0.1287
     23 N1        -40.1282   -8.5345  -50.7024 N.2       1 MOL        -0.6461
     24 N2        -41.7905  -11.5760  -46.6427 N.ar      1 MOL        -0.7652
     25 N3        -41.1372  -10.0700  -48.4069 N.ar      1 MOL        -0.7141
     26 N4        -40.9590  -13.7913  -46.6275 N.pl3     1 MOL        -0.7666
     27 N5        -41.0088  -16.4472  -45.5771 N.3       1 MOL        -0.7440
     28 N6        -37.0989   -7.9274  -54.2310 N.am      1 MOL        -0.4686
     29 N7        -39.6621  -10.8198  -50.1190 N.pl3     1 MOL        -0.8342
     30 O1        -38.9548   -6.5368  -54.4043 O.2       1 MOL        -0.5936
     31 O2        -41.5899  -19.1800  -46.1087 O.3       1 MOL        -0.6052
     32 S1        -38.5321   -9.7588  -52.3260 S.3       1 MOL        -0.0611
     33 Cl1       -38.3169   -8.1305  -57.0020 Cl        1 MOL        -0.1016
     34 H1        -34.0343   -6.2114  -58.1915 H         1 MOL         0.1385
     35 H2        -33.2100   -6.1234  -55.8629 H         1 MOL         0.1378
     36 H3        -36.2815   -7.0989  -58.6858 H         1 MOL         0.1483
     37 H4        -39.6942  -13.1086  -48.8205 H         1 MOL         0.1533
     38 H5        -40.1816   -6.6380  -51.6659 H         1 MOL         0.0463
     39 H6        -39.2019  -14.4092  -47.6237 H         1 MOL         0.0520
     40 H7        -40.6710  -15.2838  -48.0886 H         1 MOL         0.0520
     41 H8        -42.8887  -14.6416  -46.5631 H         1 MOL         0.0520
     42 H9        -42.5711  -13.4317  -45.3080 H         1 MOL         0.0520
     43 H10       -39.2632  -16.7293  -46.7326 H         1 MOL         0.0406
     44 H11       -39.1087  -15.5116  -45.4601 H         1 MOL         0.0406
     45 H12       -41.0954  -14.9347  -44.0928 H         1 MOL         0.0406
     46 H13       -42.6299  -15.7515  -44.4147 H         1 MOL         0.0406
     47 H14       -34.7520   -5.9384  -53.1695 H         1 MOL         0.0550
     48 H15       -34.9054   -7.7053  -53.0094 H         1 MOL         0.0550
     49 H16       -33.3994   -7.0111  -53.6073 H         1 MOL         0.0550
     50 H17       -42.0401   -8.7309  -45.9522 H         1 MOL         0.0649
     51 H18       -43.0233   -8.6293  -47.4336 H         1 MOL         0.0649
     52 H19       -43.5013   -9.7310  -46.1432 H         1 MOL         0.0649
     53 H20       -41.5090  -17.6354  -43.9407 H         1 MOL         0.0481
     54 H21       -39.7811  -17.2182  -44.0831 H         1 MOL         0.0481
     55 H22       -40.1624  -19.6092  -44.7093 H         1 MOL         0.0292
     56 H23       -39.5961  -18.6836  -46.1237 H         1 MOL         0.0292
     57 H24       -36.7083   -8.6933  -53.6878 H         1 MOL         0.3237
     58 H25       -39.1344  -11.6237  -50.4385 H         1 MOL         0.4580
     59 H26       -41.3809  -20.0011  -46.5823 H         1 MOL         0.4026
@<TRIPOS>BOND
     1    1    2 ar
     2    1    3 ar
     3    2    6 ar
     4    3    8 ar
     5    4   10 ar
     6    4   11 ar
     7    5    9 2
     8    5   23 1
     9    6    7 ar
    10    6   19 1
    11    7    8 ar
    12    7   28 1
    13    8   33 1
    14    9   14 1
    15    9   32 1
    16   10   24 ar
    17   10   26 1
    18   11   25 ar
    19   11   29 1
    20   12   20 1
    21   12   24 ar
    22   12   25 ar
    23   13   23 2
    24   13   29 1
    25   13   32 1
    26   14   28 am
    27   14   30 2
    28   15   17 1
    29   15   26 1
    30   16   18 1
    31   16   26 1
    32   17   27 1
    33   18   27 1
    34   21   22 1
    35   21   27 1
    36   22   31 1
    37    1   34 1
    38    2   35 1
    39    3   36 1
    40    4   37 1
    41    5   38 1
    42   15   39 1
    43   15   40 1
    44   16   41 1
    45   16   42 1
    46   17   43 1
    47   17   44 1
    48   18   45 1
    49   18   46 1
    50   19   47 1
    51   19   48 1
    52   19   49 1
    53   20   50 1
    54   20   51 1
    55   20   52 1
    56   21   53 1
    57   21   54 1
    58   22   55 1
    59   22   56 1
    60   28   57 1
    61   29   58 1
    62   31   59 1
