@<TRIPOS>MOLECULE
~{N}-methyl-2-[[3-[(~{E})-2-(2-pyridyl)vinyl]-1~{H}-indazol-6-yl]sulfanyl]benzamide
   46    49     0     0     0
SMALL
USER_CHARGES

@<TRIPOS>ATOM
      1 C1        -38.2524   -5.0878  -57.4979 C.ar      1 MOL        -0.1467
      2 C2        -38.0064   -6.4566  -57.6049 C.ar      1 MOL        -0.0974
      3 C3        -42.9642  -17.4390  -56.2121 C.ar      1 MOL        -0.0928
      4 C4        -43.8768  -17.7119  -55.1992 C.ar      1 MOL        -0.2453
      5 C5        -42.3173  -11.1700  -57.8572 C.ar      1 MOL        -0.0799
      6 C6        -39.3823   -4.5333  -58.0992 C.ar      1 MOL        -0.0939
      7 C7        -38.8901   -7.2709  -58.3132 C.ar      1 MOL        -0.1576
      8 C8        -41.9294  -10.2565  -58.8456 C.ar      1 MOL        -0.1081
      9 C9        -42.5582  -16.1288  -56.4400 C.ar      1 MOL        -0.2368
     10 C10       -41.6620   -8.4861  -57.1956 C.ar      1 MOL        -0.0800
     11 C11       -44.3497  -16.6477  -54.4483 C.ar      1 MOL         0.3986
     12 C12       -42.3767  -10.7311  -56.5240 C.ar      1 MOL        -0.1733
     13 C13       -40.2661   -5.3475  -58.8075 C.ar      1 MOL        -0.1327
     14 C14       -42.0512   -9.4126  -56.2258 C.ar      1 MOL         0.0548
     15 C15       -41.6078   -8.9379  -58.5183 C.ar      1 MOL        -0.0350
     16 C16       -40.0200   -6.7163  -58.9145 C.ar      1 MOL         0.0286
     17 C17       -43.0903  -15.1355  -55.6338 C.ar      1 MOL         0.4459
     18 C18       -42.7047  -11.3014  -55.2753 C.2       1 MOL         0.3775
     19 C19       -42.6910  -13.7314  -55.8353 C.2       1 MOL        -0.1979
     20 C20       -43.1042  -12.6512  -55.0925 C.2       1 MOL        -0.1776
     21 C21       -41.4308   -4.7144  -59.4160 C.2       1 MOL         0.6672
     22 C22       -42.2308   -2.9801  -61.0343 C.3       1 MOL         0.0802
     23 N1        -43.9787  -15.3620  -54.6402 N.ar      1 MOL        -0.6566
     24 N2        -42.6012  -10.4339  -54.2659 N.2       1 MOL        -0.3948
     25 N3        -42.2048   -9.3014  -54.8701 N.pl3     1 MOL        -0.3861
     26 N4        -41.1839   -3.7154  -60.3620 N.am      1 MOL        -0.5743
     27 O1        -42.5765   -5.0513  -59.0764 O.2       1 MOL        -0.5831
     28 S1        -41.1177   -7.8047  -59.8091 S.3       1 MOL        -0.0864
     29 H1        -37.5635   -4.4537  -56.9473 H         1 MOL         0.1379
     30 H2        -37.1260   -6.8881  -57.1375 H         1 MOL         0.1360
     31 H3        -42.5696  -18.2464  -56.8217 H         1 MOL         0.1387
     32 H4        -44.2076  -18.7255  -55.0044 H         1 MOL         0.1440
     33 H5        -42.5643  -12.1922  -58.1277 H         1 MOL         0.1450
     34 H6        -39.5619   -3.4646  -58.0087 H         1 MOL         0.1409
     35 H7        -38.6778   -8.3348  -58.3851 H         1 MOL         0.1467
     36 H8        -41.8845  -10.5996  -59.8772 H         1 MOL         0.1542
     37 H9        -41.8461  -15.9083  -57.2288 H         1 MOL         0.1438
     38 H10       -41.4156   -7.4651  -56.9224 H         1 MOL         0.1523
     39 H11       -45.0642  -16.8070  -53.6474 H         1 MOL         0.0235
     40 H12       -41.9758  -13.5668  -56.6376 H         1 MOL         0.1617
     41 H13       -43.7957  -12.8738  -54.2515 H         1 MOL         0.1330
     42 H14       -42.4673   -3.4530  -61.9910 H         1 MOL         0.0431
     43 H15       -41.9108   -1.9512  -61.2199 H         1 MOL         0.0431
     44 H16       -43.1342   -2.9605  -60.4187 H         1 MOL         0.0431
     45 H17       -42.0551   -8.4809  -54.2963 H         1 MOL         0.4865
     46 H18       -40.2273   -3.4369  -60.5548 H         1 MOL         0.3101
@<TRIPOS>BOND
     1    1    2 ar
     2    1    6 ar
     3    2    7 ar
     4    3    4 ar
     5    3    9 ar
     6    4   11 ar
     7    5    8 ar
     8    5   12 ar
     9    6   13 ar
    10    7   16 ar
    11    8   15 ar
    12    9   17 ar
    13   10   14 ar
    14   10   15 ar
    15   11   23 ar
    16   12   14 ar
    17   12   18 1
    18   13   16 ar
    19   13   21 1
    20   14   25 1
    21   15   28 1
    22   16   28 1
    23   17   19 1
    24   17   23 ar
    25   18   20 1
    26   18   24 2
    27   19   20 2
    28   21   26 am
    29   21   27 2
    30   22   26 1
    31   24   25 1
    32    1   29 1
    33    2   30 1
    34    3   31 1
    35    4   32 1
    36    5   33 1
    37    6   34 1
    38    7   35 1
    39    8   36 1
    40    9   37 1
    41   10   38 1
    42   11   39 1
    43   19   40 1
    44   20   41 1
    45   22   42 1
    46   22   43 1
    47   22   44 1
    48   25   45 1
    49   26   46 1
