@<TRIPOS>MOLECULE
~{N}-(3-ethynylphenyl)-6,7-bis(2-methoxyethoxy)quinazolin-4-amine
   52    54     0     0     0
SMALL
USER_CHARGES

@<TRIPOS>ATOM
      1 C1        -38.2554   -6.9854  -56.7277 C.1       1 MOL        -0.1770
      2 C2        -38.9890   -7.5028  -57.5244 C.1       1 MOL        -0.0730
      3 C3        -40.9943   -8.2873  -60.5645 C.ar      1 MOL        -0.1500
      4 C4        -40.1247   -7.6276  -59.6982 C.ar      1 MOL        -0.1500
      5 C5        -41.6177   -9.4705  -60.1651 C.ar      1 MOL        -0.1500
      6 C6        -40.5021   -9.3416  -58.0345 C.ar      1 MOL        -0.1500
      7 C7        -42.5378  -13.9842  -57.9580 C.ar      1 MOL        -0.1500
      8 C8        -43.3012  -14.6994  -55.4033 C.ar      1 MOL        -0.1500
      9 C9        -42.8997  -11.1805  -55.0150 C.ar      1 MOL         0.4700
     10 C10       -39.8769   -8.1572  -58.4326 C.ar      1 MOL         0.0730
     11 C11       -42.6582  -12.9887  -56.9726 C.ar      1 MOL         0.0000
     12 C12       -43.0430  -13.3568  -55.6730 C.ar      1 MOL         0.3100
     13 C13       -41.3828  -10.0125  -58.8926 C.ar      1 MOL         0.1000
     14 C14       -42.8147  -15.3234  -57.6827 C.ar      1 MOL         0.0825
     15 C15       -43.1932  -15.6917  -56.3871 C.ar      1 MOL         0.0825
     16 C16       -42.4154  -11.6207  -57.2118 C.ar      1 MOL         0.4100
     17 C17       -45.5316  -18.0347  -60.9257 C.3       1 MOL         0.2800
     18 C18       -46.1222  -19.3823  -55.8045 C.3       1 MOL         0.2800
     19 C19       -42.7363  -15.8972  -59.9967 C.3       1 MOL         0.2800
     20 C20       -43.9712  -17.4108  -54.9121 C.3       1 MOL         0.2800
     21 C21       -43.4407  -16.9621  -60.8104 C.3       1 MOL         0.2800
     22 C22       -43.9950  -18.9343  -54.8274 C.3       1 MOL         0.2800
     23 N1        -43.1645  -12.4549  -54.6915 N.ar      1 MOL        -0.6200
     24 N2        -42.5333  -10.7132  -56.2167 N.ar      1 MOL        -0.6200
     25 N3        -42.0426  -11.1946  -58.5108 N.pl3     1 MOL        -0.6000
     26 O1        -42.7383  -16.3172  -58.6244 O.3       1 MOL        -0.3625
     27 O2        -43.4278  -17.0284  -56.1783 O.3       1 MOL        -0.3625
     28 O3        -44.8277  -16.8911  -60.4740 O.3       1 MOL        -0.5600
     29 O4        -44.7148  -19.5418  -55.8974 O.3       1 MOL        -0.5600
     30 H1        -37.6112   -6.5425  -56.0058 H         1 MOL         0.1770
     31 H2        -41.1915   -7.8795  -61.5516 H         1 MOL         0.1500
     32 H3        -39.6495   -6.7058  -60.0216 H         1 MOL         0.1500
     33 H4        -42.2972   -9.9654  -60.8556 H         1 MOL         0.1500
     34 H5        -40.2918   -9.7427  -57.0452 H         1 MOL         0.1500
     35 H6        -42.2218  -13.6932  -58.9547 H         1 MOL         0.1500
     36 H7        -43.5953  -14.9531  -54.3875 H         1 MOL         0.1500
     37 H8        -42.9931  -10.4498  -54.2224 H         1 MOL         0.1500
     38 H9        -46.5909  -17.9025  -60.6924 H         1 MOL         0.0000
     39 H10       -45.1655  -18.9216  -60.4010 H         1 MOL         0.0000
     40 H11       -45.4168  -18.1554  -62.0065 H         1 MOL         0.0000
     41 H12       -46.5846  -20.0170  -56.5655 H         1 MOL         0.0000
     42 H13       -46.4066  -18.3466  -56.0071 H         1 MOL         0.0000
     43 H14       -46.4891  -19.6947  -54.8223 H         1 MOL         0.0000
     44 H15       -43.2922  -14.9651  -60.1496 H         1 MOL         0.0000
     45 H16       -41.6979  -15.7818  -60.3229 H         1 MOL         0.0000
     46 H17       -43.3400  -17.0498  -54.0922 H         1 MOL         0.0000
     47 H18       -44.9817  -17.0002  -54.8135 H         1 MOL         0.0000
     48 H19       -43.0419  -17.9533  -60.5726 H         1 MOL         0.0000
     49 H20       -43.3271  -16.7533  -61.8792 H         1 MOL         0.0000
     50 H21       -44.3999  -19.2655  -53.8640 H         1 MOL         0.0000
     51 H22       -42.9682  -19.3085  -54.8978 H         1 MOL         0.0000
     52 H23       -42.5191  -11.6736  -59.2681 H         1 MOL         0.4000
@<TRIPOS>BOND
     1    1    2 3
     2    2   10 1
     3    3    4 ar
     4    3    5 ar
     5    4   10 ar
     6    5   13 ar
     7    6   10 ar
     8    6   13 ar
     9    7   11 ar
    10    7   14 ar
    11    8   12 ar
    12    8   15 ar
    13    9   23 ar
    14    9   24 ar
    15   11   12 ar
    16   11   16 ar
    17   12   23 ar
    18   13   25 1
    19   14   15 ar
    20   14   26 1
    21   15   27 1
    22   16   24 ar
    23   16   25 1
    24   17   28 1
    25   18   29 1
    26   19   21 1
    27   19   26 1
    28   20   22 1
    29   20   27 1
    30   21   28 1
    31   22   29 1
    32    1   30 1
    33    3   31 1
    34    4   32 1
    35    5   33 1
    36    6   34 1
    37    7   35 1
    38    8   36 1
    39    9   37 1
    40   17   38 1
    41   17   39 1
    42   17   40 1
    43   18   41 1
    44   18   42 1
    45   18   43 1
    46   19   44 1
    47   19   45 1
    48   20   46 1
    49   20   47 1
    50   21   48 1
    51   21   49 1
    52   22   50 1
    53   22   51 1
    54   25   52 1
