@<TRIPOS>MOLECULE
4-(2,4-dichloro-5-methoxy-anilino)-6-methoxy-7-[3-(4-methylpiperazin-1-yl)propoxy]quinoline-3-carbonitrile
   65    68     0     0     0
SMALL
USER_CHARGES

@<TRIPOS>ATOM
      1 C1        -38.3611   -7.6487  -56.6525 C.1       1 MOL         0.2440
      2 C2        -42.6725   -5.6827  -57.9815 C.ar      1 MOL        -0.1135
      3 C3        -41.2790   -3.9068  -59.5957 C.ar      1 MOL        -0.2141
      4 C4        -41.5741   -9.4557  -57.9619 C.ar      1 MOL        -0.1806
      5 C5        -42.8218  -10.9062  -55.9317 C.ar      1 MOL        -0.0838
      6 C6        -38.5450   -5.7920  -58.2107 C.ar      1 MOL         0.4607
      7 C7        -39.1564   -6.7120  -57.3833 C.ar      1 MOL        -0.1707
      8 C8        -41.2698   -5.7403  -58.0421 C.ar      1 MOL        -0.1738
      9 C9        -40.5546   -4.8408  -58.8603 C.ar      1 MOL         0.4310
     10 C10       -41.7077   -8.9007  -56.6893 C.ar      1 MOL         0.1952
     11 C11       -40.5411   -6.6809  -57.3017 C.ar      1 MOL         0.2624
     12 C12       -43.3716   -4.7382  -58.7275 C.ar      1 MOL         0.0881
     13 C13       -42.6736   -3.8493  -59.5356 C.ar      1 MOL         0.1210
     14 C14       -42.0645  -10.7359  -58.2195 C.ar      1 MOL         0.1334
     15 C15       -42.3315   -9.6259  -55.6741 C.ar      1 MOL        -0.0295
     16 C16       -42.6883  -11.4611  -57.2044 C.ar      1 MOL        -0.0184
     17 C17       -42.4819    1.0143  -64.6532 C.3       1 MOL         0.1674
     18 C18       -40.5290    1.8666  -63.5237 C.3       1 MOL         0.1674
     19 C19       -43.2425    0.9947  -63.3228 C.3       1 MOL         0.1711
     20 C20       -41.2904    1.8481  -62.1938 C.3       1 MOL         0.1711
     21 C21       -40.7231    2.0731  -65.9185 C.3       1 MOL         0.1580
     22 C22       -45.3028   -3.8549  -57.6570 C.3       1 MOL         0.1163
     23 C23       -42.9725  -11.0028  -60.4013 C.3       1 MOL         0.1155
     24 C24       -43.6821   -0.5675  -60.6375 C.3       1 MOL        -0.0888
     25 C25       -43.0470    0.7858  -60.9284 C.3       1 MOL         0.1796
     26 C26       -42.6575   -1.6908  -60.5338 C.3       1 MOL         0.1327
     27 N1        -37.7155   -8.4091  -56.0594 N.1       1 MOL        -0.3586
     28 N2        -39.2109   -4.8687  -58.9414 N.ar      1 MOL        -0.6627
     29 N3        -41.4500    2.0585  -64.6506 N.3       1 MOL        -0.7336
     30 N4        -42.3207    0.8024  -62.1966 N.3       1 MOL        -0.7378
     31 N5        -41.2048   -7.6113  -56.4609 N.pl3     1 MOL        -0.6909
     32 O1        -44.7305   -4.6954  -58.6577 O.3       1 MOL        -0.3321
     33 O2        -41.9202  -11.2534  -59.4724 O.3       1 MOL        -0.3373
     34 O3        -43.3408   -2.9110  -60.2791 O.3       1 MOL        -0.3346
     35 Cl1       -42.5175   -8.9757  -54.0844 Cl        1 MOL        -0.0755
     36 Cl2       -43.3035  -13.0463  -57.4957 Cl        1 MOL        -0.0644
     37 H1        -43.2404   -6.3681  -57.3559 H         1 MOL         0.1532
     38 H2        -40.7492   -3.2015  -60.2348 H         1 MOL         0.1655
     39 H3        -41.0885   -8.8943  -58.7570 H         1 MOL         0.1571
     40 H4        -43.3086  -11.4725  -55.1403 H         1 MOL         0.1657
     41 H5        -37.4651   -5.7573  -58.3250 H         1 MOL         0.0371
     42 H6        -42.0390    0.0264  -64.8396 H         1 MOL         0.0377
     43 H7        -43.2011    1.2061  -65.4587 H         1 MOL         0.0377
     44 H8        -39.8037    2.6888  -63.4940 H         1 MOL         0.0377
     45 H9        -39.9604    0.9335  -63.6367 H         1 MOL         0.0377
     46 H10       -43.8112    1.9277  -63.2090 H         1 MOL         0.0370
     47 H11       -43.9677    0.1725  -63.3526 H         1 MOL         0.0370
     48 H12       -40.5713    1.6574  -61.3879 H         1 MOL         0.0370
     49 H13       -41.7344    2.8357  -62.0085 H         1 MOL         0.0370
     50 H14       -39.9584    2.8541  -65.9042 H         1 MOL         0.0322
     51 H15       -41.4104    2.2688  -66.7461 H         1 MOL         0.0322
     52 H16       -40.2375    1.1082  -66.0869 H         1 MOL         0.0322
     53 H17       -46.3927   -3.9134  -57.7107 H         1 MOL         0.0460
     54 H18       -44.9744   -2.8244  -57.8140 H         1 MOL         0.0460
     55 H19       -44.9699   -4.1955  -56.6737 H         1 MOL         0.0460
     56 H20       -42.7324  -11.4697  -61.3597 H         1 MOL         0.0471
     57 H21       -43.0969   -9.9247  -60.5301 H         1 MOL         0.0471
     58 H22       -43.8994  -11.4307  -60.0122 H         1 MOL         0.0471
     59 H23       -44.2424   -0.5097  -59.6959 H         1 MOL         0.0653
     60 H24       -44.4197   -0.8187  -61.4102 H         1 MOL         0.0653
     61 H25       -43.8200    1.5578  -60.9935 H         1 MOL         0.0322
     62 H26       -42.3457    1.0697  -60.1373 H         1 MOL         0.0322
     63 H27       -42.0928   -1.8002  -61.4648 H         1 MOL         0.0410
     64 H28       -41.9584   -1.5061  -59.7119 H         1 MOL         0.0410
     65 H29       -41.3359   -7.2716  -55.5162 H         1 MOL         0.4556
@<TRIPOS>BOND
     1    1    7 1
     2    1   27 3
     3    2    8 ar
     4    2   12 ar
     5    3    9 ar
     6    3   13 ar
     7    4   10 ar
     8    4   14 ar
     9    5   15 ar
    10    5   16 ar
    11    6    7 ar
    12    6   28 ar
    13    7   11 ar
    14    8    9 ar
    15    8   11 ar
    16    9   28 ar
    17   10   15 ar
    18   10   31 1
    19   11   31 1
    20   12   13 ar
    21   12   32 1
    22   13   34 1
    23   14   16 ar
    24   14   33 1
    25   15   35 1
    26   16   36 1
    27   17   19 1
    28   17   29 1
    29   18   20 1
    30   18   29 1
    31   19   30 1
    32   20   30 1
    33   21   29 1
    34   22   32 1
    35   23   33 1
    36   24   25 1
    37   24   26 1
    38   25   30 1
    39   26   34 1
    40    2   37 1
    41    3   38 1
    42    4   39 1
    43    5   40 1
    44    6   41 1
    45   17   42 1
    46   17   43 1
    47   18   44 1
    48   18   45 1
    49   19   46 1
    50   19   47 1
    51   20   48 1
    52   20   49 1
    53   21   50 1
    54   21   51 1
    55   21   52 1
    56   22   53 1
    57   22   54 1
    58   22   55 1
    59   23   56 1
    60   23   57 1
    61   23   58 1
    62   24   59 1
    63   24   60 1
    64   25   61 1
    65   25   62 1
    66   26   63 1
    67   26   64 1
    68   31   65 1
