@<TRIPOS>MOLECULE
~{N}-(3-chloro-4-fluoro-phenyl)-7-methoxy-6-(3-morpholinopropoxy)quinazolin-4-amine
   55    58     0     0     0
SMALL
USER_CHARGES

@<TRIPOS>ATOM
      1 C1        -41.5795   -8.9532  -60.2210 C.ar      1 MOL        -0.1500
      2 C2        -41.0416   -7.7504  -60.6747 C.ar      1 MOL        -0.1500
      3 C3        -42.6216  -13.4250  -58.0215 C.ar      1 MOL        -0.1500
      4 C4        -43.3097  -14.1173  -55.4330 C.ar      1 MOL        -0.1500
      5 C5        -40.4798   -8.6580  -58.0917 C.ar      1 MOL        -0.1500
      6 C6        -42.6041  -10.6633  -54.9821 C.ar      1 MOL         0.4700
      7 C7        -42.5982  -12.4347  -57.0082 C.ar      1 MOL         0.0000
      8 C8        -42.9467  -12.8001  -55.6946 C.ar      1 MOL         0.3100
      9 C9        -41.3115   -9.4241  -58.9228 C.ar      1 MOL         0.1000
     10 C10       -42.9856  -14.7417  -57.7422 C.ar      1 MOL         0.0825
     11 C11       -43.3401  -15.0916  -56.4365 C.ar      1 MOL         0.0825
     12 C12       -40.2261   -7.0072  -59.8320 C.ar      1 MOL         0.1900
     13 C13       -39.9405   -7.4544  -58.5475 C.ar      1 MOL         0.1770
     14 C14       -42.2553  -11.0760  -57.2131 C.ar      1 MOL         0.4100
     15 C15       -43.8612  -15.2994  -63.8263 C.3       1 MOL         0.2700
     16 C16       -44.7789  -13.2145  -63.0524 C.3       1 MOL         0.2700
     17 C17       -44.9328  -15.3241  -64.9144 C.3       1 MOL         0.2800
     18 C18       -45.8156  -13.2811  -64.1688 C.3       1 MOL         0.2800
     19 C19       -44.0239  -16.8006  -54.9199 C.3       1 MOL         0.2800
     20 C20       -42.8522  -15.8499  -61.0789 C.3       1 MOL         0.0000
     21 C21       -43.3985  -14.4919  -61.5452 C.3       1 MOL         0.2700
     22 C22       -42.1096  -15.7473  -59.7451 C.3       1 MOL         0.2800
     23 N1        -42.9501  -11.9223  -54.6836 N.ar      1 MOL        -0.6200
     24 N2        -42.2582  -10.1926  -56.1868 N.ar      1 MOL        -0.6200
     25 N3        -44.3641  -14.5716  -62.6538 N.3       1 MOL        -0.8100
     26 N4        -41.9023  -10.6368  -58.5132 N.pl3     1 MOL        -0.6000
     27 O1        -45.2943  -13.9957  -65.2889 O.3       1 MOL        -0.5600
     28 O2        -43.6989  -16.4017  -56.2453 O.3       1 MOL        -0.3625
     29 O3        -43.0649  -15.7310  -58.6829 O.3       1 MOL        -0.3625
     30 F1        -39.7165   -5.8494  -60.2743 F         1 MOL        -0.1900
     31 Cl1       -38.9250   -6.5283  -57.5121 Cl        1 MOL        -0.1770
     32 H1        -42.2214   -9.5248  -60.8883 H         1 MOL         0.1500
     33 H2        -41.2622   -7.3981  -61.6771 H         1 MOL         0.1500
     34 H3        -42.3645  -13.1515  -59.0398 H         1 MOL         0.1500
     35 H4        -43.5805  -14.3690  -54.4099 H         1 MOL         0.1500
     36 H5        -40.2412   -8.9938  -57.0861 H         1 MOL         0.1500
     37 H6        -42.6069   -9.9514  -54.1666 H         1 MOL         0.1500
     38 H7        -43.6233  -16.3372  -63.5721 H         1 MOL         0.0000
     39 H8        -42.9518  -14.8209  -64.2108 H         1 MOL         0.0000
     40 H9        -43.9083  -12.6434  -63.4018 H         1 MOL         0.0000
     41 H10       -45.2119  -12.6802  -62.1992 H         1 MOL         0.0000
     42 H11       -44.5486  -15.8300  -65.8055 H         1 MOL         0.0000
     43 H12       -45.8272  -15.8688  -64.5867 H         1 MOL         0.0000
     44 H13       -46.7446  -13.7549  -63.8298 H         1 MOL         0.0000
     45 H14       -46.0634  -12.2699  -64.5070 H         1 MOL         0.0000
     46 H15       -44.2595  -17.8684  -54.9444 H         1 MOL         0.0000
     47 H16       -44.9111  -16.2729  -54.5550 H         1 MOL         0.0000
     48 H17       -43.1724  -16.6638  -54.2452 H         1 MOL         0.0000
     49 H18       -43.6781  -16.5652  -60.9804 H         1 MOL         0.0000
     50 H19       -42.1556  -16.2368  -61.8316 H         1 MOL         0.0000
     51 H20       -43.9093  -14.0143  -60.7013 H         1 MOL         0.0000
     52 H21       -42.5512  -13.8480  -61.8160 H         1 MOL         0.0000
     53 H22       -41.5198  -16.6611  -59.6072 H         1 MOL         0.0000
     54 H23       -41.3969  -14.9163  -59.7378 H         1 MOL         0.0000
     55 H24       -42.3668  -11.1351  -59.2646 H         1 MOL         0.4000
@<TRIPOS>BOND
     1    1    2 ar
     2    1    9 ar
     3    2   12 ar
     4    3    7 ar
     5    3   10 ar
     6    4    8 ar
     7    4   11 ar
     8    5    9 ar
     9    5   13 ar
    10    6   23 ar
    11    6   24 ar
    12    7    8 ar
    13    7   14 ar
    14    8   23 ar
    15    9   26 1
    16   10   11 ar
    17   10   29 1
    18   11   28 1
    19   12   13 ar
    20   12   30 1
    21   13   31 1
    22   14   24 ar
    23   14   26 1
    24   15   17 1
    25   15   25 1
    26   16   18 1
    27   16   25 1
    28   17   27 1
    29   18   27 1
    30   19   28 1
    31   20   21 1
    32   20   22 1
    33   21   25 1
    34   22   29 1
    35    1   32 1
    36    2   33 1
    37    3   34 1
    38    4   35 1
    39    5   36 1
    40    6   37 1
    41   15   38 1
    42   15   39 1
    43   16   40 1
    44   16   41 1
    45   17   42 1
    46   17   43 1
    47   18   44 1
    48   18   45 1
    49   19   46 1
    50   19   47 1
    51   19   48 1
    52   20   49 1
    53   20   50 1
    54   21   51 1
    55   21   52 1
    56   22   53 1
    57   22   54 1
    58   26   55 1
