@<TRIPOS>MOLECULE
3-(2-imidazo[1,2-b]pyridazin-3-ylethynyl)-4-methyl-~{N}-[4-[(4-methylpiperazin-1-yl)methyl]-3-(trifluoromethyl)phenyl]benzamide
   66    70     0     0     0
SMALL
USER_CHARGES

@<TRIPOS>ATOM
      1 C1        -43.9788  -17.5036  -56.8668 C.1       1 MOL        -0.0824
      2 C2        -44.3811  -18.1516  -57.7949 C.1       1 MOL        -0.0641
      3 C3        -42.5734  -15.1842  -53.6324 C.ar      1 MOL        -0.0928
      4 C4        -42.6376  -16.5721  -53.5096 C.ar      1 MOL        -0.1469
      5 C5        -42.4983   -8.9429  -56.2052 C.ar      1 MOL        -0.0989
      6 C6        -42.6318  -10.2619  -55.7717 C.ar      1 MOL        -0.1357
      7 C7        -43.4351  -15.3435  -55.8839 C.ar      1 MOL        -0.0422
      8 C8        -42.4549  -11.0305  -58.0553 C.ar      1 MOL        -0.1519
      9 C9        -44.1476  -19.4336  -59.9586 C.2       1 MOL         0.3660
     10 C10       -43.4994  -16.7315  -55.7611 C.ar      1 MOL         0.0162
     11 C11       -44.8602  -18.9229  -58.9002 C.2       1 MOL        -0.0904
     12 C12       -42.9722  -14.5699  -54.8195 C.ar      1 MOL        -0.1640
     13 C13       -43.1006  -17.3458  -54.5739 C.ar      1 MOL        -0.0177
     14 C14       -42.3433   -8.6676  -57.5639 C.ar      1 MOL        -0.0515
     15 C15       -42.3215   -9.7114  -58.4889 C.ar      1 MOL        -0.1397
     16 C16       -42.6100  -11.3057  -56.6967 C.ar      1 MOL         0.0687
     17 C17       -46.1704  -20.0344  -60.2989 C.2       1 MOL         0.4191
     18 C18       -47.4184  -20.5410  -60.7311 C.2       1 MOL        -0.1548
     19 C19       -48.5149  -20.3061  -60.0010 C.2       1 MOL        -0.2590
     20 C20       -48.3359  -19.5118  -58.7621 C.2       1 MOL         0.3952
     21 C21       -42.9041  -13.1040  -54.9474 C.2       1 MOL         0.6862
     22 C22       -39.3286   -5.3700  -59.5849 C.3       1 MOL         0.1713
     23 C23       -38.5624   -6.3655  -57.5263 C.3       1 MOL         0.1713
     24 C24       -40.7746   -5.7175  -59.2145 C.3       1 MOL         0.1758
     25 C25       -40.0086   -6.7116  -57.1557 C.3       1 MOL         0.1758
     26 C26       -43.1549  -18.8306  -54.4067 C.3       1 MOL        -0.0720
     27 C27       -37.1335   -4.8451  -58.7356 C.3       1 MOL         0.1616
     28 C28       -42.2023   -7.2399  -58.0066 C.3       1 MOL         0.2178
     29 C29       -42.1546   -9.4408  -59.9482 C.3       1 MOL         0.6849
     30 N1        -44.9636  -20.1203  -60.8209 N.2       1 MOL        -0.6481
     31 N2        -47.2200  -19.0231  -58.3178 N.2       1 MOL        -0.4848
     32 N3        -46.1561  -19.3088  -59.1201 N.pl3     1 MOL         0.0695
     33 N4        -38.5130   -5.1725  -58.3804 N.3       1 MOL        -0.7397
     34 N5        -40.8231   -6.9107  -58.3607 N.3       1 MOL        -0.7542
     35 N6        -42.7415  -12.6253  -56.2633 N.am      1 MOL        -0.4697
     36 O1        -42.9538  -12.3795  -53.9557 O.2       1 MOL        -0.5824
     37 F1        -42.1528  -10.5699  -60.7156 F         1 MOL        -0.2397
     38 F2        -43.1389   -8.6535  -60.4722 F         1 MOL        -0.2397
     39 F3        -40.9829   -8.8020  -60.2310 F         1 MOL        -0.2397
     40 H1        -42.2119  -14.5916  -52.7957 H         1 MOL         0.1379
     41 H2        -42.3245  -17.0405  -52.5802 H         1 MOL         0.1431
     42 H3        -42.5175   -8.1364  -55.4768 H         1 MOL         0.1638
     43 H4        -42.7531  -10.4639  -54.7106 H         1 MOL         0.1821
     44 H5        -43.7454  -14.8584  -56.8077 H         1 MOL         0.1676
     45 H6        -42.4379  -11.8439  -58.7776 H         1 MOL         0.1446
     46 H7        -43.0870  -19.3454  -60.1481 H         1 MOL         0.0561
     47 H8        -47.4748  -21.1147  -61.6494 H         1 MOL         0.1708
     48 H9        -49.4996  -20.6624  -60.2704 H         1 MOL         0.1577
     49 H10       -49.2585  -19.3360  -58.1852 H         1 MOL         0.0530
     50 H11       -38.9085   -6.1645  -60.2167 H         1 MOL         0.0366
     51 H12       -39.3373   -4.4497  -60.1815 H         1 MOL         0.0366
     52 H13       -38.0041   -6.1815  -56.6004 H         1 MOL         0.0366
     53 H14       -38.0934   -7.2245  -58.0252 H         1 MOL         0.0366
     54 H15       -41.2443   -4.8590  -58.7153 H         1 MOL         0.0399
     55 H16       -41.3328   -5.9015  -60.1405 H         1 MOL         0.0399
     56 H17       -40.0003   -7.6313  -56.5581 H         1 MOL         0.0399
     57 H18       -40.4289   -5.9162  -56.5253 H         1 MOL         0.0399
     58 H19       -44.1280  -19.1303  -54.0023 H         1 MOL         0.0566
     59 H20       -43.0004  -19.3415  -55.3644 H         1 MOL         0.0566
     60 H21       -42.3692  -19.1801  -53.7264 H         1 MOL         0.0566
     61 H22       -36.5369   -4.7006  -57.8311 H         1 MOL         0.0319
     62 H23       -37.1035   -3.9263  -59.3275 H         1 MOL         0.0319
     63 H24       -36.6920   -5.6549  -59.3228 H         1 MOL         0.0319
     64 H25       -42.8313   -7.0431  -58.8816 H         1 MOL         0.0561
     65 H26       -42.5188   -6.5505  -57.2168 H         1 MOL         0.0561
     66 H27       -42.7166  -13.3410  -56.9986 H         1 MOL         0.3224
@<TRIPOS>BOND
     1    1    2 3
     2    1   10 1
     3    2   11 1
     4    3    4 ar
     5    3   12 ar
     6    4   13 ar
     7    5    6 ar
     8    5   14 ar
     9    6   16 ar
    10    7   10 ar
    11    7   12 ar
    12    8   15 ar
    13    8   16 ar
    14    9   11 2
    15    9   30 1
    16   10   13 ar
    17   11   32 1
    18   12   21 1
    19   13   26 1
    20   14   15 ar
    21   14   28 1
    22   15   29 1
    23   16   35 1
    24   17   18 1
    25   17   30 2
    26   17   32 1
    27   18   19 2
    28   19   20 1
    29   20   31 2
    30   21   35 am
    31   21   36 2
    32   22   24 1
    33   22   33 1
    34   23   25 1
    35   23   33 1
    36   24   34 1
    37   25   34 1
    38   27   33 1
    39   28   34 1
    40   29   37 1
    41   29   38 1
    42   29   39 1
    43   31   32 1
    44    3   40 1
    45    4   41 1
    46    5   42 1
    47    6   43 1
    48    7   44 1
    49    8   45 1
    50    9   46 1
    51   18   47 1
    52   19   48 1
    53   20   49 1
    54   22   50 1
    55   22   51 1
    56   23   52 1
    57   23   53 1
    58   24   54 1
    59   24   55 1
    60   25   56 1
    61   25   57 1
    62   26   58 1
    63   26   59 1
    64   26   60 1
    65   27   61 1
    66   27   62 1
    67   27   63 1
    68   28   64 1
    69   28   65 1
    70   35   66 1
