@<TRIPOS>MOLECULE
3-(2-imidazo[1,2-b]pyridazin-3-ylethynyl)-4-methyl-~{N}-[4-[(4-methylpiperazin-1-yl)methyl]-3-(trifluoromethyl)phenyl]benzamide
   66    70     0     0     0
SMALL
USER_CHARGES

@<TRIPOS>ATOM
      1 C1        -41.4196   -8.3099  -56.7288 C.1       1 MOL        -0.0730
      2 C2        -41.8654   -9.4197  -56.6286 C.1       1 MOL        -0.0200
      3 C3        -39.9678   -4.5171  -57.8944 C.ar      1 MOL        -0.1500
      4 C4        -39.1021   -5.4279  -57.2780 C.ar      1 MOL        -0.1500
      5 C5        -42.7797    0.5605  -60.6147 C.ar      1 MOL        -0.1500
      6 C6        -42.0342   -0.5449  -60.2056 C.ar      1 MOL        -0.1500
      7 C7        -41.7592   -6.1130  -57.6934 C.ar      1 MOL        -0.1500
      8 C8        -44.0140   -1.4982  -59.2282 C.ar      1 MOL        -0.1500
      9 C9        -42.3486  -11.5252  -57.8796 C.2       1 MOL         0.0772
     10 C10       -40.8919   -7.0265  -57.0799 C.ar      1 MOL         0.0730
     11 C11       -42.3597  -10.7423  -56.7477 C.2       1 MOL        -0.1316
     12 C12       -41.3080   -4.8503  -58.1027 C.ar      1 MOL         0.0862
     13 C13       -39.5504   -6.6875  -56.8579 C.ar      1 MOL        -0.1435
     14 C14       -44.1596    0.6529  -60.3514 C.ar      1 MOL        -0.1435
     15 C15       -44.7772   -0.3841  -59.6238 C.ar      1 MOL        -0.1435
     16 C16       -42.6495   -1.5927  -59.5231 C.ar      1 MOL         0.1170
     17 C17       -43.2657  -12.7271  -56.3768 C.2       1 MOL         0.1415
     18 C18       -43.8928  -13.7043  -55.5726 C.2       1 MOL        -0.1050
     19 C19       -44.1571  -13.4318  -54.2906 C.2       1 MOL        -0.1356
     20 C20       -43.7611  -12.0916  -53.7956 C.2       1 MOL         0.3756
     21 C21       -42.3051   -3.9317  -58.7282 C.2       1 MOL         0.5438
     22 C22       -44.2420    2.0340  -64.5552 C.3       1 MOL         0.2700
     23 C23       -44.5575    4.2794  -63.7236 C.3       1 MOL         0.2700
     24 C24       -44.8049    1.4767  -63.2443 C.3       1 MOL         0.2700
     25 C25       -45.0954    3.7077  -62.4068 C.3       1 MOL         0.2700
     26 C26       -38.5874   -7.6361  -56.2031 C.3       1 MOL         0.1435
     27 C27       -44.2435    3.8958  -66.0826 C.3       1 MOL         0.2700
     28 C28       -44.9362    1.8698  -60.8309 C.3       1 MOL         0.4135
     29 C29       -46.2370   -0.3458  -59.2498 C.3       1 MOL         1.1635
     30 N1        -42.9090  -12.7505  -57.6440 N.2       1 MOL        -0.5653
     31 N2        -43.1829  -11.1574  -54.4846 N.2       1 MOL        -0.6520
     32 N3        -42.9504  -11.5154  -55.7805 N.pl3     1 MOL         0.5052
     33 N4        -44.8013    3.3598  -64.8423 N.3       1 MOL        -0.8100
     34 N5        -44.4962    2.3942  -62.1368 N.3       1 MOL        -0.8100
     35 N6        -41.8400   -2.6914  -59.1450 N.am      1 MOL        -0.5470
     36 O1        -43.4609   -4.3321  -58.8497 O.2       1 MOL        -0.5700
     37 F1        -46.6024   -1.3093  -58.3565 F         1 MOL        -0.3400
     38 F2        -46.6020    0.8314  -58.6682 F         1 MOL        -0.3400
     39 F3        -47.0577   -0.5116  -60.3223 F         1 MOL        -0.3400
     40 H1        -39.5520   -3.5605  -58.1913 H         1 MOL         0.1500
     41 H2        -38.0639   -5.1394  -57.1295 H         1 MOL         0.1500
     42 H3        -42.2654    1.3524  -61.1543 H         1 MOL         0.1500
     43 H4        -40.9726   -0.5784  -60.4388 H         1 MOL         0.1500
     44 H5        -42.7966   -6.4049  -57.8508 H         1 MOL         0.1500
     45 H6        -44.5143   -2.2836  -58.6708 H         1 MOL         0.1500
     46 H7        -41.9636  -11.2631  -58.8549 H         1 MOL         0.1500
     47 H8        -44.1524  -14.6632  -56.0065 H         1 MOL         0.1500
     48 H9        -44.6347  -14.1330  -53.6211 H         1 MOL         0.1500
     49 H10       -43.9941  -11.9005  -52.7356 H         1 MOL         0.0600
     50 H11       -43.1454    2.0745  -64.4960 H         1 MOL         0.0000
     51 H12       -44.4979    1.3392  -65.3641 H         1 MOL         0.0000
     52 H13       -45.0596    5.2352  -63.9160 H         1 MOL         0.0000
     53 H14       -43.4843    4.4894  -63.6182 H         1 MOL         0.0000
     54 H15       -45.8881    1.3183  -63.3342 H         1 MOL         0.0000
     55 H16       -44.3488    0.4944  -63.0786 H         1 MOL         0.0000
     56 H17       -44.8438    4.4075  -61.6011 H         1 MOL         0.0000
     57 H18       -46.1909    3.6369  -62.4480 H         1 MOL         0.0000
     58 H19       -38.9958   -8.0013  -55.2547 H         1 MOL         0.0000
     59 H20       -38.3804   -8.4838  -56.8634 H         1 MOL         0.0000
     60 H21       -37.6369   -7.1433  -55.9727 H         1 MOL         0.0000
     61 H22       -44.7041    4.8595  -66.3257 H         1 MOL         0.0000
     62 H23       -44.4551    3.2236  -66.9214 H         1 MOL         0.0000
     63 H24       -43.1582    4.0376  -66.0221 H         1 MOL         0.0000
     64 H25       -46.0087    1.6528  -60.8864 H         1 MOL         0.0000
     65 H26       -44.8022    2.6380  -60.0584 H         1 MOL         0.0000
     66 H27       -40.8416   -2.5433  -59.2507 H         1 MOL         0.3700
@<TRIPOS>BOND
     1    1    2 3
     2    1   10 1
     3    2   11 1
     4    3    4 ar
     5    3   12 ar
     6    4   13 ar
     7    5    6 ar
     8    5   14 ar
     9    6   16 ar
    10    7   10 ar
    11    7   12 ar
    12    8   15 ar
    13    8   16 ar
    14    9   11 2
    15    9   30 1
    16   10   13 ar
    17   11   32 1
    18   12   21 1
    19   13   26 1
    20   14   15 ar
    21   14   28 1
    22   15   29 1
    23   16   35 1
    24   17   18 1
    25   17   30 2
    26   17   32 1
    27   18   19 2
    28   19   20 1
    29   20   31 2
    30   21   35 am
    31   21   36 2
    32   22   24 1
    33   22   33 1
    34   23   25 1
    35   23   33 1
    36   24   34 1
    37   25   34 1
    38   27   33 1
    39   28   34 1
    40   29   37 1
    41   29   38 1
    42   29   39 1
    43   31   32 1
    44    3   40 1
    45    4   41 1
    46    5   42 1
    47    6   43 1
    48    7   44 1
    49    8   45 1
    50    9   46 1
    51   18   47 1
    52   19   48 1
    53   20   49 1
    54   22   50 1
    55   22   51 1
    56   23   52 1
    57   23   53 1
    58   24   54 1
    59   24   55 1
    60   25   56 1
    61   25   57 1
    62   26   58 1
    63   26   59 1
    64   26   60 1
    65   27   61 1
    66   27   62 1
    67   27   63 1
    68   28   64 1
    69   28   65 1
    70   35   66 1
