@<TRIPOS>MOLECULE
3-(2-imidazo[1,2-b]pyridazin-3-ylethynyl)-4-methyl-~{N}-[4-[(4-methylpiperazin-1-yl)methyl]-3-(trifluoromethyl)phenyl]benzamide
   66    70     0     0     0
SMALL
USER_CHARGES

@<TRIPOS>ATOM
      1 C1        -40.0635   -9.6524  -51.6219 C.1       1 MOL        -0.0824
      2 C2        -39.6340   -9.5978  -52.7416 C.1       1 MOL        -0.0641
      3 C3        -41.5606   -9.8939  -47.6828 C.ar      1 MOL        -0.0928
      4 C4        -41.5790   -8.6714  -48.3542 C.ar      1 MOL        -0.1469
      5 C5        -38.9632  -16.7262  -47.9786 C.ar      1 MOL        -0.0989
      6 C6        -39.2127  -15.4305  -48.4308 C.ar      1 MOL        -0.1357
      7 C7        -40.5571  -10.9402  -49.6156 C.ar      1 MOL        -0.0422
      8 C8        -40.0890  -14.8408  -46.2579 C.ar      1 MOL        -0.1519
      9 C9        -39.4945  -10.2755  -55.1708 C.2       1 MOL         0.3660
     10 C10       -40.5756   -9.7177  -50.2870 C.ar      1 MOL         0.0162
     11 C11       -39.1224   -9.5329  -54.0758 C.2       1 MOL        -0.0904
     12 C12       -41.0496  -11.0284  -48.3135 C.ar      1 MOL        -0.1640
     13 C13       -41.0866   -8.5834  -49.6563 C.ar      1 MOL        -0.0177
     14 C14       -39.2766  -17.0793  -46.6660 C.ar      1 MOL        -0.0515
     15 C15       -39.8395  -16.1366  -45.8057 C.ar      1 MOL        -0.1397
     16 C16       -39.7755  -14.4878  -47.5704 C.ar      1 MOL         0.0687
     17 C17       -37.9562   -8.9680  -55.8728 C.2       1 MOL         0.4191
     18 C18       -36.9750   -8.2148  -56.5590 C.2       1 MOL        -0.1548
     19 C19       -36.2731   -7.2871  -55.8978 C.2       1 MOL        -0.2590
     20 C20       -36.5834   -7.1135  -54.4585 C.2       1 MOL         0.3952
     21 C21       -41.0289  -12.3183  -47.6027 C.2       1 MOL         0.6862
     22 C22       -41.1587  -21.0104  -44.4197 C.3       1 MOL         0.1713
     23 C23       -42.2894  -20.3149  -46.4330 C.3       1 MOL         0.1713
     24 C24       -39.8856  -20.2978  -44.8888 C.3       1 MOL         0.1758
     25 C25       -41.0164  -19.6013  -46.9011 C.3       1 MOL         0.1758
     26 C26       -41.1227   -7.2566  -50.3448 C.3       1 MOL        -0.0720
     27 C27       -43.1776  -22.1300  -45.1170 C.3       1 MOL         0.1616
     28 C28       -38.9991  -18.4800  -46.2022 C.3       1 MOL         0.2178
     29 C29       -40.1836  -16.4919  -44.3964 C.3       1 MOL         0.6849
     30 N1        -38.7694   -9.9216  -56.2799 N.2       1 MOL        -0.6481
     31 N2        -37.4690   -7.7734  -53.7790 N.2       1 MOL        -0.4848
     32 N3        -38.1366   -8.6958  -54.5277 N.pl3     1 MOL         0.0695
     33 N4        -41.9623  -21.4532  -45.5657 N.3       1 MOL        -0.7397
     34 N5        -40.2137  -19.1586  -45.7545 N.3       1 MOL        -0.7542
     35 N6        -40.0248  -13.1919  -48.0231 N.am      1 MOL        -0.4697
     36 O1        -41.8659  -12.5795  -46.7413 O.2       1 MOL        -0.5824
     37 F1        -40.7255  -15.4571  -43.6899 F         1 MOL        -0.2397
     38 F2        -41.0906  -17.5071  -44.2967 F         1 MOL        -0.2397
     39 F3        -39.0966  -16.8977  -43.6791 F         1 MOL        -0.2397
     40 H1        -41.9490   -9.9518  -46.6692 H         1 MOL         0.1379
     41 H2        -41.9800   -7.7939  -47.8537 H         1 MOL         0.1431
     42 H3        -38.5245  -17.4534  -48.6568 H         1 MOL         0.1638
     43 H4        -38.9643  -15.1666  -49.4557 H         1 MOL         0.1821
     44 H5        -40.1588  -11.8286  -50.1023 H         1 MOL         0.1676
     45 H6        -40.5281  -14.1067  -45.5859 H         1 MOL         0.1446
     46 H7        -40.2485  -11.0484  -55.2226 H         1 MOL         0.0561
     47 H8        -36.8011   -8.3959  -57.6138 H         1 MOL         0.1708
     48 H9        -35.5094   -6.6753  -56.3579 H         1 MOL         0.1577
     49 H10       -35.9869   -6.3426  -53.9440 H         1 MOL         0.0530
     50 H11       -40.8654  -21.8778  -43.8157 H         1 MOL         0.0366
     51 H12       -41.7385  -20.3410  -43.7695 H         1 MOL         0.0366
     52 H13       -42.8321  -20.6677  -47.3186 H         1 MOL         0.0366
     53 H14       -42.9427  -19.6009  -45.9129 H         1 MOL         0.0366
     54 H15       -39.2338  -21.0117  -45.4105 H         1 MOL         0.0399
     55 H16       -39.3416  -19.9460  -44.0038 H         1 MOL         0.0399
     56 H17       -40.4360  -20.2706  -47.5507 H         1 MOL         0.0399
     57 H18       -41.3096  -18.7341  -47.5051 H         1 MOL         0.0399
     58 H19       -40.1966   -6.7078  -50.1489 H         1 MOL         0.0566
     59 H20       -41.2387   -7.3806  -51.4266 H         1 MOL         0.0566
     60 H21       -41.9702   -6.6577  -49.9949 H         1 MOL         0.0566
     61 H22       -43.7465  -22.4433  -45.9861 H         1 MOL         0.0319
     62 H23       -43.7648  -21.4419  -44.5176 H         1 MOL         0.0319
     63 H24       -42.9017  -22.9951  -44.5227 H         1 MOL         0.0319
     64 H25       -38.5592  -19.0743  -47.0105 H         1 MOL         0.0561
     65 H26       -38.2870  -18.4847  -45.3703 H         1 MOL         0.0561
     66 H27       -39.4044  -12.8814  -48.7668 H         1 MOL         0.3224
@<TRIPOS>BOND
     1    1    2 3
     2    1   10 1
     3    2   11 1
     4    3    4 ar
     5    3   12 ar
     6    4   13 ar
     7    5    6 ar
     8    5   14 ar
     9    6   16 ar
    10    7   10 ar
    11    7   12 ar
    12    8   15 ar
    13    8   16 ar
    14    9   11 2
    15    9   30 1
    16   10   13 ar
    17   11   32 1
    18   12   21 1
    19   13   26 1
    20   14   15 ar
    21   14   28 1
    22   15   29 1
    23   16   35 1
    24   17   18 1
    25   17   30 2
    26   17   32 1
    27   18   19 2
    28   19   20 1
    29   20   31 2
    30   21   35 am
    31   21   36 2
    32   22   24 1
    33   22   33 1
    34   23   25 1
    35   23   33 1
    36   24   34 1
    37   25   34 1
    38   27   33 1
    39   28   34 1
    40   29   37 1
    41   29   38 1
    42   29   39 1
    43   31   32 1
    44    3   40 1
    45    4   41 1
    46    5   42 1
    47    6   43 1
    48    7   44 1
    49    8   45 1
    50    9   46 1
    51   18   47 1
    52   19   48 1
    53   20   49 1
    54   22   50 1
    55   22   51 1
    56   23   52 1
    57   23   53 1
    58   24   54 1
    59   24   55 1
    60   25   56 1
    61   25   57 1
    62   26   58 1
    63   26   59 1
    64   26   60 1
    65   27   61 1
    66   27   62 1
    67   27   63 1
    68   28   64 1
    69   28   65 1
    70   35   66 1
