@<TRIPOS>MOLECULE
4-(2,4-dichloro-5-methoxy-anilino)-6-methoxy-7-[3-(4-methylpiperazin-1-yl)propoxy]quinoline-3-carbonitrile
   65    68     0     0     0
SMALL
USER_CHARGES

@<TRIPOS>ATOM
      1 C1        -42.6511   -9.3392  -56.0005 C.1       1 MOL         0.4841
      2 C2        -42.5508  -14.0351  -57.8734 C.ar      1 MOL        -0.1500
      3 C3        -43.3785  -14.8117  -55.3579 C.ar      1 MOL        -0.1500
      4 C4        -40.3632   -9.3706  -57.9327 C.ar      1 MOL        -0.1500
      5 C5        -40.9785   -8.3017  -60.4362 C.ar      1 MOL        -0.1500
      6 C6        -43.1535  -11.3242  -54.7729 C.ar      1 MOL         0.1600
      7 C7        -42.7367  -10.7679  -55.9698 C.ar      1 MOL         0.0730
      8 C8        -42.7120  -13.0368  -56.8707 C.ar      1 MOL         0.0000
      9 C9        -43.1431  -13.4668  -55.5968 C.ar      1 MOL         0.3100
     10 C10       -41.3165  -10.0235  -58.7401 C.ar      1 MOL         0.1000
     11 C11       -42.4838  -11.6275  -57.0563 C.ar      1 MOL         0.1000
     12 C12       -42.8108  -15.3910  -57.6232 C.ar      1 MOL         0.0825
     13 C13       -43.2146  -15.7844  -56.3451 C.ar      1 MOL         0.0825
     14 C14       -39.7387   -8.1857  -58.3505 C.ar      1 MOL         0.0825
     15 C15       -41.5990   -9.4715  -60.0020 C.ar      1 MOL         0.1770
     16 C16       -40.0612   -7.6606  -59.6075 C.ar      1 MOL         0.1770
     17 C17       -48.0255  -19.6016  -57.2313 C.3       1 MOL         0.2700
     18 C18       -48.1786  -19.2674  -54.8515 C.3       1 MOL         0.2700
     19 C19       -46.5659  -20.0364  -57.0733 C.3       1 MOL         0.2700
     20 C20       -46.7159  -19.6999  -54.6938 C.3       1 MOL         0.2700
     21 C21       -50.1857  -19.4870  -56.1685 C.3       1 MOL         0.2700
     22 C22       -42.7802  -16.0090  -59.9214 C.3       1 MOL         0.2800
     23 C23       -38.6086   -7.8518  -56.2677 C.3       1 MOL         0.2800
     24 C24       -43.7312  -19.0595  -54.7269 C.3       1 MOL         0.0000
     25 C25       -44.5372  -19.8072  -55.7970 C.3       1 MOL         0.2700
     26 C26       -43.7908  -17.5367  -54.8304 C.3       1 MOL         0.2800
     27 N1        -42.6237   -8.1786  -55.9932 N.1       1 MOL        -0.5571
     28 N2        -43.3485  -12.6362  -54.5724 N.ar      1 MOL        -0.6200
     29 N3        -48.7937  -19.9073  -56.0195 N.3       1 MOL        -0.8100
     30 N4        -45.9439  -19.3943  -55.9060 N.3       1 MOL        -0.8100
     31 N5        -42.0202  -11.1750  -58.3189 N.pl3     1 MOL        -0.6000
     32 O1        -42.6887  -16.3932  -58.5534 O.3       1 MOL        -0.3625
     33 O2        -38.8246   -7.4731  -57.6197 O.3       1 MOL        -0.3625
     34 O3        -43.4300  -17.1264  -56.1506 O.3       1 MOL        -0.3625
     35 Cl1       -42.7425  -10.2177  -61.0638 Cl        1 MOL        -0.1770
     36 Cl2       -39.3452   -6.1948  -60.1766 Cl        1 MOL        -0.1770
     37 H1        -42.2234  -13.7397  -58.8664 H         1 MOL         0.1500
     38 H2        -43.7064  -15.0868  -54.3574 H         1 MOL         0.1500
     39 H3        -40.1231   -9.7965  -56.9621 H         1 MOL         0.1500
     40 H4        -41.2184   -7.8857  -61.4119 H         1 MOL         0.1500
     41 H5        -43.3628  -10.7082  -53.9029 H         1 MOL         0.1500
     42 H6        -48.0678  -18.5288  -57.4637 H         1 MOL         0.0000
     43 H7        -48.4530  -20.1383  -58.0868 H         1 MOL         0.0000
     44 H8        -48.7217  -19.5539  -53.9427 H         1 MOL         0.0000
     45 H9        -48.2315  -18.1729  -54.9310 H         1 MOL         0.0000
     46 H10       -46.5115  -21.1304  -56.9879 H         1 MOL         0.0000
     47 H11       -46.0252  -19.7533  -57.9847 H         1 MOL         0.0000
     48 H12       -46.3070  -19.1613  -53.8321 H         1 MOL         0.0000
     49 H13       -46.6687  -20.7722  -54.4613 H         1 MOL         0.0000
     50 H14       -50.7654  -19.7544  -55.2781 H         1 MOL         0.0000
     51 H15       -50.6539  -20.0020  -57.0147 H         1 MOL         0.0000
     52 H16       -50.2779  -18.4066  -56.3286 H         1 MOL         0.0000
     53 H17       -42.8922  -16.9217  -60.5156 H         1 MOL         0.0000
     54 H18       -41.8623  -15.5112  -60.2475 H         1 MOL         0.0000
     55 H19       -43.6600  -15.3834  -60.1100 H         1 MOL         0.0000
     56 H20       -37.9345   -7.1115  -55.8241 H         1 MOL         0.0000
     57 H21       -38.1177   -8.8274  -56.2091 H         1 MOL         0.0000
     58 H22       -39.5388   -7.8364  -55.6910 H         1 MOL         0.0000
     59 H23       -44.0458  -19.3647  -53.7224 H         1 MOL         0.0000
     60 H24       -42.6835  -19.3688  -54.8312 H         1 MOL         0.0000
     61 H25       -44.0398  -19.6349  -56.7606 H         1 MOL         0.0000
     62 H26       -44.4648  -20.8850  -55.6012 H         1 MOL         0.0000
     63 H27       -44.8010  -17.1799  -54.5973 H         1 MOL         0.0000
     64 H28       -43.0841  -17.1360  -54.0935 H         1 MOL         0.0000
     65 H29       -42.3578  -11.7279  -59.1008 H         1 MOL         0.4000
@<TRIPOS>BOND
     1    1    7 1
     2    1   27 3
     3    2    8 ar
     4    2   12 ar
     5    3    9 ar
     6    3   13 ar
     7    4   10 ar
     8    4   14 ar
     9    5   15 ar
    10    5   16 ar
    11    6    7 ar
    12    6   28 ar
    13    7   11 ar
    14    8    9 ar
    15    8   11 ar
    16    9   28 ar
    17   10   15 ar
    18   10   31 1
    19   11   31 1
    20   12   13 ar
    21   12   32 1
    22   13   34 1
    23   14   16 ar
    24   14   33 1
    25   15   35 1
    26   16   36 1
    27   17   19 1
    28   17   29 1
    29   18   20 1
    30   18   29 1
    31   19   30 1
    32   20   30 1
    33   21   29 1
    34   22   32 1
    35   23   33 1
    36   24   25 1
    37   24   26 1
    38   25   30 1
    39   26   34 1
    40    2   37 1
    41    3   38 1
    42    4   39 1
    43    5   40 1
    44    6   41 1
    45   17   42 1
    46   17   43 1
    47   18   44 1
    48   18   45 1
    49   19   46 1
    50   19   47 1
    51   20   48 1
    52   20   49 1
    53   21   50 1
    54   21   51 1
    55   21   52 1
    56   22   53 1
    57   22   54 1
    58   22   55 1
    59   23   56 1
    60   23   57 1
    61   23   58 1
    62   24   59 1
    63   24   60 1
    64   25   61 1
    65   25   62 1
    66   26   63 1
    67   26   64 1
    68   31   65 1
