@<TRIPOS>MOLECULE
~{N}-(3-chloro-4-fluoro-phenyl)-7-methoxy-6-(3-morpholinopropoxy)quinazolin-4-amine
   55    58     0     0     0
SMALL
USER_CHARGES

@<TRIPOS>ATOM
      1 C1        -41.3742    3.1729  -62.9100 C.ar      1 MOL        -0.0786
      2 C2        -40.2704    3.8241  -63.4607 C.ar      1 MOL        -0.1504
      3 C3        -43.8984   -0.5617  -60.6155 C.ar      1 MOL        -0.1130
      4 C4        -46.0484    0.4621  -59.1854 C.ar      1 MOL        -0.1819
      5 C5        -40.5758    1.0712  -63.7945 C.ar      1 MOL        -0.1435
      6 C6        -45.1892    3.2668  -61.2474 C.ar      1 MOL         0.6680
      7 C7        -44.3381    0.7550  -60.8367 C.ar      1 MOL        -0.2849
      8 C8        -45.4239    1.2843  -60.1201 C.ar      1 MOL         0.4333
      9 C9        -41.5268    1.7965  -63.0768 C.ar      1 MOL         0.1157
     10 C10       -44.5409   -1.3611  -59.6752 C.ar      1 MOL         0.0877
     11 C11       -45.6171   -0.8483  -58.9597 C.ar      1 MOL         0.0950
     12 C12       -39.3193    3.0988  -64.1784 C.ar      1 MOL         0.1283
     13 C13       -39.4720    1.7223  -64.3453 C.ar      1 MOL        -0.0096
     14 C14       -43.7398    1.6062  -61.7615 C.ar      1 MOL         0.6927
     15 C15       -41.3441   -6.5353  -57.0317 C.3       1 MOL         0.1373
     16 C16       -39.3224   -6.2457  -58.3073 C.3       1 MOL         0.1373
     17 C17       -41.0264   -8.0237  -56.9195 C.3       1 MOL         0.1276
     18 C18       -39.0529   -7.7411  -58.1660 C.3       1 MOL         0.1276
     19 C19       -45.7717   -1.5603  -56.6958 C.3       1 MOL         0.1191
     20 C20       -42.4692   -4.2903  -58.8783 C.3       1 MOL        -0.0919
     21 C21       -41.0517   -4.5659  -58.3941 C.3       1 MOL         0.1801
     22 C22       -42.7638   -2.8026  -59.0273 C.3       1 MOL         0.1312
     23 N1        -45.8526    2.5423  -60.3235 N.ar      1 MOL        -0.7055
     24 N2        -44.1434    2.8701  -61.9902 N.ar      1 MOL        -0.7528
     25 N3        -40.7698   -5.9946  -58.2716 N.3       1 MOL        -0.7374
     26 N4        -42.6381    1.1419  -62.5224 N.pl3     1 MOL        -0.7173
     27 O1        -39.6143   -8.2346  -56.9492 O.3       1 MOL        -0.4163
     28 O2        -46.2612   -1.6133  -58.0342 O.3       1 MOL        -0.3500
     29 O3        -44.1070   -2.6439  -59.4647 O.3       1 MOL        -0.3428
     30 F1        -38.2641    3.7386  -64.7024 F         1 MOL        -0.1242
     31 Cl1       -38.3027    0.8218  -65.2316 Cl        1 MOL        -0.0642
     32 H1        -42.1091    3.7475  -62.3515 H         1 MOL         0.1696
     33 H2        -40.1522    4.8957  -63.3310 H         1 MOL         0.1585
     34 H3        -43.0586   -0.9793  -61.1661 H         1 MOL         0.1459
     35 H4        -46.8930    0.8461  -58.6152 H         1 MOL         0.1707
     36 H5        -40.6988   -0.0020  -63.9228 H         1 MOL         0.1514
     37 H6        -45.5395    4.2794  -61.4064 H         1 MOL         0.0566
     38 H7        -42.4320   -6.4018  -57.0270 H         1 MOL         0.0402
     39 H8        -40.9327   -6.0083  -56.1609 H         1 MOL         0.0402
     40 H9        -38.8224   -5.7062  -57.4924 H         1 MOL         0.0402
     41 H10       -38.8991   -5.8968  -59.2562 H         1 MOL         0.0402
     42 H11       -41.4017   -8.4133  -55.9677 H         1 MOL         0.0537
     43 H12       -41.4998   -8.5996  -57.7238 H         1 MOL         0.0537
     44 H13       -39.4590   -8.3082  -59.0127 H         1 MOL         0.0537
     45 H14       -37.9742   -7.9242  -58.1327 H         1 MOL         0.0537
     46 H15       -46.3732   -2.2153  -56.0608 H         1 MOL         0.0460
     47 H16       -45.8225   -0.5321  -56.3287 H         1 MOL         0.0460
     48 H17       -44.7328   -1.8984  -56.6837 H         1 MOL         0.0460
     49 H18       -42.6228   -4.7817  -59.8472 H         1 MOL         0.0611
     50 H19       -43.2014   -4.7391  -58.1952 H         1 MOL         0.0611
     51 H20       -40.3257   -4.1573  -59.1039 H         1 MOL         0.0341
     52 H21       -40.8726   -4.1045  -57.4177 H         1 MOL         0.0341
     53 H22       -42.6476   -2.2775  -58.0742 H         1 MOL         0.0501
     54 H23       -42.1008   -2.3463  -59.7693 H         1 MOL         0.0501
     55 H24       -42.6634    0.1440  -62.6954 H         1 MOL         0.4263
@<TRIPOS>BOND
     1    1    2 ar
     2    1    9 ar
     3    2   12 ar
     4    3    7 ar
     5    3   10 ar
     6    4    8 ar
     7    4   11 ar
     8    5    9 ar
     9    5   13 ar
    10    6   23 ar
    11    6   24 ar
    12    7    8 ar
    13    7   14 ar
    14    8   23 ar
    15    9   26 1
    16   10   11 ar
    17   10   29 1
    18   11   28 1
    19   12   13 ar
    20   12   30 1
    21   13   31 1
    22   14   24 ar
    23   14   26 1
    24   15   17 1
    25   15   25 1
    26   16   18 1
    27   16   25 1
    28   17   27 1
    29   18   27 1
    30   19   28 1
    31   20   21 1
    32   20   22 1
    33   21   25 1
    34   22   29 1
    35    1   32 1
    36    2   33 1
    37    3   34 1
    38    4   35 1
    39    5   36 1
    40    6   37 1
    41   15   38 1
    42   15   39 1
    43   16   40 1
    44   16   41 1
    45   17   42 1
    46   17   43 1
    47   18   44 1
    48   18   45 1
    49   19   46 1
    50   19   47 1
    51   19   48 1
    52   20   49 1
    53   20   50 1
    54   21   51 1
    55   21   52 1
    56   22   53 1
    57   22   54 1
    58   26   55 1
