@<TRIPOS>MOLECULE
4-methyl-~{N}-[3-(4-methylimidazol-1-yl)-5-(trifluoromethyl)phenyl]-3-[[4-(3-pyridyl)pyrimidin-2-yl]amino]benzamide
   61    65     0     0     0
SMALL
USER_CHARGES

@<TRIPOS>ATOM
      1 C1        -38.3427   -3.9297  -58.5820 C.ar      1 MOL        -0.2497
      2 C2        -39.1065   -5.0856  -58.6989 C.ar      1 MOL        -0.0689
      3 C3        -44.3165  -12.4756  -54.6036 C.ar      1 MOL        -0.1076
      4 C4        -44.4636  -11.3066  -53.8571 C.ar      1 MOL        -0.1323
      5 C5        -40.1557   -7.8226  -58.9050 C.ar      1 MOL        -0.4094
      6 C6        -42.5667  -11.4283  -55.8991 C.ar      1 MOL        -0.0857
      7 C7        -43.3761  -18.8979  -57.1394 C.ar      1 MOL        -0.1478
      8 C8        -43.0313  -16.5330  -57.4931 C.ar      1 MOL        -0.1645
      9 C9        -43.9236  -17.3225  -55.3914 C.ar      1 MOL        -0.1773
     10 C10       -37.7172   -3.6854  -57.3701 C.ar      1 MOL         0.4043
     11 C11       -40.9311   -8.9633  -58.8619 C.ar      1 MOL         0.4615
     12 C12       -38.5548   -5.6152  -56.4469 C.ar      1 MOL         0.4315
     13 C13       -44.7542  -19.5715  -53.7732 C.2       1 MOL        -0.2484
     14 C14       -44.2553  -21.0067  -55.3695 C.2       1 MOL         0.4179
     15 C15       -39.2198   -5.9498  -57.6155 C.ar      1 MOL        -0.2761
     16 C16       -43.3680  -12.5365  -55.6246 C.ar      1 MOL        -0.1496
     17 C17       -43.6622  -10.1984  -54.1316 C.ar      1 MOL        -0.0273
     18 C18       -42.9637  -17.8464  -57.9579 C.ar      1 MOL        -0.1084
     19 C19       -43.8561  -18.6360  -55.8561 C.ar      1 MOL         0.0653
     20 C20       -42.7138  -10.2592  -55.1526 C.ar      1 MOL         0.1433
     21 C21       -43.5112  -16.2710  -56.2099 C.ar      1 MOL         0.1042
     22 C22       -40.0056   -7.1571  -57.7055 C.ar      1 MOL         0.5378
     23 C23       -45.0188  -20.8645  -53.3877 C.2       1 MOL         0.3180
     24 C24       -41.2975   -8.6908  -56.6351 C.ar      1 MOL         0.8952
     25 C25       -43.2151  -13.7553  -56.4032 C.2       1 MOL         0.6903
     26 C26       -43.8436   -8.9580  -53.3183 C.3       1 MOL        -0.0655
     27 C27       -45.5645  -21.3384  -52.1067 C.3       1 MOL        -0.1179
     28 C28       -42.4499  -18.1264  -59.3296 C.3       1 MOL         0.6863
     29 N1        -37.8039   -4.5012  -56.2956 N.ar      1 MOL        -0.6655
     30 N2        -41.5192   -9.4280  -57.7400 N.ar      1 MOL        -0.7354
     31 N3        -44.7058  -21.7532  -54.3857 N.2       1 MOL        -0.6553
     32 N4        -40.5645   -7.5645  -56.5471 N.ar      1 MOL        -0.7505
     33 N5        -44.2653  -19.6786  -55.0447 N.pl3     1 MOL        -0.1500
     34 N6        -41.8955   -9.1459  -55.4455 N.pl3     1 MOL        -0.7542
     35 N7        -43.5794  -14.9360  -55.7375 N.am      1 MOL        -0.4714
     36 O1        -42.7619  -13.7392  -57.5560 O.2       1 MOL        -0.5843
     37 F1        -42.4394  -19.4543  -59.6499 F         1 MOL        -0.2343
     38 F2        -43.1770  -17.5274  -60.3187 F         1 MOL        -0.2343
     39 F3        -41.1665  -17.6970  -59.5075 F         1 MOL        -0.2343
     40 H1        -38.2392   -3.2416  -59.4131 H         1 MOL         0.1476
     41 H2        -39.6076   -5.3000  -59.6395 H         1 MOL         0.1450
     42 H3        -44.9459  -13.3334  -54.3810 H         1 MOL         0.1353
     43 H4        -45.2048  -11.2700  -53.0630 H         1 MOL         0.1446
     44 H5        -39.7013   -7.4840  -59.8278 H         1 MOL         0.1595
     45 H6        -41.8281  -11.4755  -56.6966 H         1 MOL         0.1655
     46 H7        -43.3217  -19.9208  -57.5062 H         1 MOL         0.1577
     47 H8        -42.7083  -15.7146  -58.1327 H         1 MOL         0.1543
     48 H9        -44.2981  -17.1156  -54.3907 H         1 MOL         0.1882
     49 H10       -37.1102   -2.7970  -57.2277 H         1 MOL         0.0247
     50 H11       -41.1062   -9.5531  -59.7554 H         1 MOL         0.0298
     51 H12       -38.6021   -6.2482  -55.5653 H         1 MOL         0.0338
     52 H13       -44.8675  -18.6216  -53.2677 H         1 MOL         0.1810
     53 H14       -43.9114  -21.3717  -56.3284 H         1 MOL         0.0753
     54 H15       -43.1902   -8.9823  -52.4389 H         1 MOL         0.0563
     55 H16       -43.6077   -8.0621  -53.9052 H         1 MOL         0.0563
     56 H17       -44.8820   -8.8548  -52.9805 H         1 MOL         0.0563
     57 H18       -46.6674  -21.3849  -52.1316 H         1 MOL         0.0493
     58 H19       -45.1969  -22.3467  -51.8420 H         1 MOL         0.0493
     59 H20       -45.2800  -20.6840  -51.2623 H         1 MOL         0.0493
     60 H21       -41.7023   -8.5621  -54.6380 H         1 MOL         0.4662
     61 H22       -43.9391  -14.8187  -54.7935 H         1 MOL         0.3248
@<TRIPOS>BOND
     1    1    2 ar
     2    1   10 ar
     3    2   15 ar
     4    3    4 ar
     5    3   16 ar
     6    4   17 ar
     7    5   11 ar
     8    5   22 ar
     9    6   16 ar
    10    6   20 ar
    11    7   18 ar
    12    7   19 ar
    13    8   18 ar
    14    8   21 ar
    15    9   19 ar
    16    9   21 ar
    17   10   29 ar
    18   11   30 ar
    19   12   15 ar
    20   12   29 ar
    21   13   23 2
    22   13   33 1
    23   14   31 2
    24   14   33 1
    25   15   22 1
    26   16   25 1
    27   17   20 ar
    28   17   26 1
    29   18   28 1
    30   19   33 1
    31   20   34 1
    32   21   35 1
    33   22   32 ar
    34   23   27 1
    35   23   31 1
    36   24   30 ar
    37   24   32 ar
    38   24   34 1
    39   25   35 am
    40   25   36 2
    41   28   37 1
    42   28   38 1
    43   28   39 1
    44    1   40 1
    45    2   41 1
    46    3   42 1
    47    4   43 1
    48    5   44 1
    49    6   45 1
    50    7   46 1
    51    8   47 1
    52    9   48 1
    53   10   49 1
    54   11   50 1
    55   12   51 1
    56   13   52 1
    57   14   53 1
    58   26   54 1
    59   26   55 1
    60   26   56 1
    61   27   57 1
    62   27   58 1
    63   27   59 1
    64   34   60 1
    65   35   61 1
