@<TRIPOS>MOLECULE
~{N}-(3-chloro-4-fluoro-phenyl)-7-methoxy-6-(3-morpholinopropoxy)quinazolin-4-amine
   55    58     0     0     0
SMALL
USER_CHARGES

@<TRIPOS>ATOM
      1 C1        -41.5629   -9.0393  -60.2324 C.ar      1 MOL        -0.1500
      2 C2        -41.0236   -7.8460  -60.7109 C.ar      1 MOL        -0.1500
      3 C3        -42.6908  -13.4447  -57.9535 C.ar      1 MOL        -0.1500
      4 C4        -43.3583  -14.0995  -55.3502 C.ar      1 MOL        -0.1500
      5 C5        -40.5202   -8.6676  -58.0875 C.ar      1 MOL        -0.1500
      6 C6        -42.5987  -10.6518  -54.9450 C.ar      1 MOL         0.4700
      7 C7        -42.6383  -12.4437  -56.9521 C.ar      1 MOL         0.0000
      8 C8        -42.9792  -12.7903  -55.6310 C.ar      1 MOL         0.3100
      9 C9        -41.3255   -9.4674  -58.9130 C.ar      1 MOL         0.1000
     10 C10       -43.0739  -14.7526  -57.6560 C.ar      1 MOL         0.0825
     11 C11       -43.4150  -15.0842  -56.3420 C.ar      1 MOL         0.0825
     12 C12       -40.2373   -7.0683  -59.8716 C.ar      1 MOL         0.1900
     13 C13       -39.9804   -7.4730  -58.5672 C.ar      1 MOL         0.1770
     14 C14       -42.2736  -11.0925  -57.1749 C.ar      1 MOL         0.4100
     15 C15       -43.9051  -15.2599  -63.7637 C.3       1 MOL         0.2700
     16 C16       -44.8012  -13.1665  -62.9904 C.3       1 MOL         0.2700
     17 C17       -44.9476  -15.2524  -64.8800 C.3       1 MOL         0.2800
     18 C18       -45.8141  -13.2044  -64.1301 C.3       1 MOL         0.2800
     19 C19       -44.0346  -16.7835  -54.7874 C.3       1 MOL         0.2800
     20 C20       -42.9932  -15.8638  -60.9889 C.3       1 MOL         0.0000
     21 C21       -43.4808  -14.4867  -61.4642 C.3       1 MOL         0.2700
     22 C22       -42.2398  -15.7894  -59.6590 C.3       1 MOL         0.2800
     23 N1        -42.9599  -11.9021  -54.6296 N.ar      1 MOL        -0.6200
     24 N2        -42.2554  -10.1995  -56.1575 N.ar      1 MOL        -0.6200
     25 N3        -44.4231  -14.5354  -62.5952 N.3       1 MOL        -0.8100
     26 N4        -41.9189  -10.6723  -58.4814 N.pl3     1 MOL        -0.6000
     27 O1        -45.2777  -13.9137  -65.2464 O.3       1 MOL        -0.5600
     28 O2        -43.7901  -16.3868  -56.1310 O.3       1 MOL        -0.3625
     29 O3        -43.1829  -15.7484  -58.5869 O.3       1 MOL        -0.3625
     30 F1        -39.7281   -5.9192  -60.3363 F         1 MOL        -0.1900
     31 Cl1       -39.0004   -6.5051  -57.5356 Cl        1 MOL        -0.1770
     32 H1        -42.1823   -9.6374  -60.8979 H         1 MOL         0.1500
     33 H2        -41.2209   -7.5273  -61.7294 H         1 MOL         0.1500
     34 H3        -42.4424  -13.1872  -58.9779 H         1 MOL         0.1500
     35 H4        -43.6208  -14.3361  -54.3212 H         1 MOL         0.1500
     36 H5        -40.3023   -8.9672  -57.0662 H         1 MOL         0.1500
     37 H6        -42.5846   -9.9306  -54.1378 H         1 MOL         0.1500
     38 H7        -43.6939  -16.3050  -63.5162 H         1 MOL         0.0000
     39 H8        -42.9770  -14.7947  -64.1190 H         1 MOL         0.0000
     40 H9        -43.9119  -12.6101  -63.3157 H         1 MOL         0.0000
     41 H10       -45.2427  -12.6303  -62.1428 H         1 MOL         0.0000
     42 H11       -44.5479  -15.7533  -65.7672 H         1 MOL         0.0000
     43 H12       -45.8591  -15.7865  -64.5833 H         1 MOL         0.0000
     44 H13       -46.7573  -13.6689  -63.8179 H         1 MOL         0.0000
     45 H14       -46.0400  -12.1859  -64.4617 H         1 MOL         0.0000
     46 H15       -44.2625  -17.8533  -54.7940 H         1 MOL         0.0000
     47 H16       -44.9034  -16.2607  -54.3747 H         1 MOL         0.0000
     48 H17       -43.1472  -16.6375  -54.1625 H         1 MOL         0.0000
     49 H18       -43.8513  -16.5391  -60.8843 H         1 MOL         0.0000
     50 H19       -42.3158  -16.2865  -61.7397 H         1 MOL         0.0000
     51 H20       -43.9945  -13.9949  -60.6303 H         1 MOL         0.0000
     52 H21       -42.6073  -13.8705  -61.7153 H         1 MOL         0.0000
     53 H22       -41.6791  -16.7225  -59.5297 H         1 MOL         0.0000
     54 H23       -41.4988  -14.9833  -59.6523 H         1 MOL         0.0000
     55 H24       -42.3764  -11.1858  -59.2267 H         1 MOL         0.4000
@<TRIPOS>BOND
     1    1    2 ar
     2    1    9 ar
     3    2   12 ar
     4    3    7 ar
     5    3   10 ar
     6    4    8 ar
     7    4   11 ar
     8    5    9 ar
     9    5   13 ar
    10    6   23 ar
    11    6   24 ar
    12    7    8 ar
    13    7   14 ar
    14    8   23 ar
    15    9   26 1
    16   10   11 ar
    17   10   29 1
    18   11   28 1
    19   12   13 ar
    20   12   30 1
    21   13   31 1
    22   14   24 ar
    23   14   26 1
    24   15   17 1
    25   15   25 1
    26   16   18 1
    27   16   25 1
    28   17   27 1
    29   18   27 1
    30   19   28 1
    31   20   21 1
    32   20   22 1
    33   21   25 1
    34   22   29 1
    35    1   32 1
    36    2   33 1
    37    3   34 1
    38    4   35 1
    39    5   36 1
    40    6   37 1
    41   15   38 1
    42   15   39 1
    43   16   40 1
    44   16   41 1
    45   17   42 1
    46   17   43 1
    47   18   44 1
    48   18   45 1
    49   19   46 1
    50   19   47 1
    51   19   48 1
    52   20   49 1
    53   20   50 1
    54   21   51 1
    55   21   52 1
    56   22   53 1
    57   22   54 1
    58   26   55 1
