@<TRIPOS>MOLECULE
~{N}-methyl-2-[[3-[(~{E})-2-(2-pyridyl)vinyl]-1~{H}-indazol-6-yl]sulfanyl]benzamide
   46    49     0     0     0
SMALL
USER_CHARGES

@<TRIPOS>ATOM
      1 C1        -38.2195   -7.2586  -56.5600 C.ar      1 MOL        -0.1467
      2 C2        -37.9542   -8.6080  -56.7933 C.ar      1 MOL        -0.0974
      3 C3        -43.6903  -19.5219  -54.0612 C.ar      1 MOL        -0.0928
      4 C4        -44.6773  -19.8563  -54.9817 C.ar      1 MOL        -0.2453
      5 C5        -42.1564  -13.1945  -58.2661 C.ar      1 MOL        -0.0799
      6 C6        -39.2468   -6.6196  -57.2542 C.ar      1 MOL        -0.0939
      7 C7        -38.7162   -9.3184  -57.7209 C.ar      1 MOL        -0.1576
      8 C8        -41.6263  -12.1744  -59.0661 C.ar      1 MOL        -0.1081
      9 C9        -43.2328  -18.2111  -53.9862 C.ar      1 MOL        -0.2368
     10 C10       -41.6209  -10.6194  -57.1926 C.ar      1 MOL        -0.0800
     11 C11       -45.1702  -18.8511  -55.7980 C.ar      1 MOL         0.3986
     12 C12       -42.4202  -12.9184  -56.9141 C.ar      1 MOL        -0.1733
     13 C13       -40.0088   -7.3300  -58.1818 C.ar      1 MOL        -0.1327
     14 C14       -42.1495  -11.6501  -56.4125 C.ar      1 MOL         0.0548
     15 C15       -41.3638  -10.9095  -58.5365 C.ar      1 MOL        -0.0350
     16 C16       -39.7435   -8.6794  -58.4152 C.ar      1 MOL         0.0286
     17 C17       -43.7901  -17.2795  -54.8472 C.ar      1 MOL         0.4459
     18 C18       -42.9323  -13.6301  -55.8080 C.2       1 MOL         0.3775
     19 C19       -43.3393  -15.8772  -54.8062 C.2       1 MOL        -0.1979
     20 C20       -43.3493  -14.9862  -55.8528 C.2       1 MOL        -0.1776
     21 C21       -41.0698   -6.6116  -58.8789 C.2       1 MOL         0.6672
     22 C22       -43.2077   -5.3328  -58.6318 C.3       1 MOL         0.0802
     23 N1        -44.7505  -17.5667  -55.7544 N.ar      1 MOL        -0.6566
     24 N2        -42.9876  -12.8919  -54.6971 N.2       1 MOL        -0.3948
     25 N3        -42.5084  -11.7006  -55.0925 N.pl3     1 MOL        -0.3861
     26 N4        -42.0783   -6.0528  -58.0887 N.am      1 MOL        -0.5743
     27 O1        -41.0645   -6.5332  -60.1181 O.2       1 MOL        -0.5831
     28 S1        -40.6875   -9.6364  -59.5912 S.3       1 MOL        -0.0864
     29 H1        -37.6252   -6.7053  -55.8386 H         1 MOL         0.1379
     30 H2        -37.1536   -9.1052  -56.2535 H         1 MOL         0.1360
     31 H3        -43.2797  -20.2817  -53.4029 H         1 MOL         0.1387
     32 H4        -45.0483  -20.8719  -55.0577 H         1 MOL         0.1440
     33 H5        -42.3550  -14.1731  -58.6927 H         1 MOL         0.1450
     34 H6        -39.4426   -5.5672  -57.0633 H         1 MOL         0.1409
     35 H7        -38.4909  -10.3688  -57.8880 H         1 MOL         0.1467
     36 H8        -41.4232  -12.3915  -60.1129 H         1 MOL         0.1542
     37 H9        -42.4627  -17.9427  -53.2700 H         1 MOL         0.1438
     38 H10       -41.4233   -9.6423  -56.7636 H         1 MOL         0.1523
     39 H11       -45.9398  -19.0601  -56.5338 H         1 MOL         0.0235
     40 H12       -42.9988  -15.5314  -53.8332 H         1 MOL         0.1617
     41 H13       -43.7525  -15.3690  -56.8150 H         1 MOL         0.1330
     42 H14       -42.9970   -4.2603  -58.6480 H         1 MOL         0.0431
     43 H15       -44.0969   -5.5076  -58.0202 H         1 MOL         0.0431
     44 H16       -43.4132   -5.6665  -59.6525 H         1 MOL         0.0431
     45 H17       -42.4514  -10.9574  -54.4075 H         1 MOL         0.4865
     46 H18       -42.0654   -6.2019  -57.0851 H         1 MOL         0.3101
@<TRIPOS>BOND
     1    1    2 ar
     2    1    6 ar
     3    2    7 ar
     4    3    4 ar
     5    3    9 ar
     6    4   11 ar
     7    5    8 ar
     8    5   12 ar
     9    6   13 ar
    10    7   16 ar
    11    8   15 ar
    12    9   17 ar
    13   10   14 ar
    14   10   15 ar
    15   11   23 ar
    16   12   14 ar
    17   12   18 1
    18   13   16 ar
    19   13   21 1
    20   14   25 1
    21   15   28 1
    22   16   28 1
    23   17   19 1
    24   17   23 ar
    25   18   20 1
    26   18   24 2
    27   19   20 2
    28   21   26 am
    29   21   27 2
    30   22   26 1
    31   24   25 1
    32    1   29 1
    33    2   30 1
    34    3   31 1
    35    4   32 1
    36    5   33 1
    37    6   34 1
    38    7   35 1
    39    8   36 1
    40    9   37 1
    41   10   38 1
    42   11   39 1
    43   19   40 1
    44   20   41 1
    45   22   42 1
    46   22   43 1
    47   22   44 1
    48   25   45 1
    49   26   46 1
