@<TRIPOS>MOLECULE
~{N}-(3-chloro-4-fluoro-phenyl)-7-methoxy-6-(3-morpholinopropoxy)quinazolin-4-amine
   55    58     0     0     0
SMALL
USER_CHARGES

@<TRIPOS>ATOM
      1 C1        -41.6688   -9.6225  -60.1072 C.ar      1 MOL        -0.1500
      2 C2        -41.0712   -8.4369  -60.5339 C.ar      1 MOL        -0.1500
      3 C3        -42.5675  -14.1288  -57.8510 C.ar      1 MOL        -0.1500
      4 C4        -43.3625  -14.7949  -55.2872 C.ar      1 MOL        -0.1500
      5 C5        -40.5376   -9.4402  -57.9811 C.ar      1 MOL        -0.1500
      6 C6        -42.9294  -11.2757  -54.9381 C.ar      1 MOL         0.4700
      7 C7        -42.6869  -13.1126  -56.8790 C.ar      1 MOL         0.0000
      8 C8        -43.0829  -13.4600  -55.5746 C.ar      1 MOL         0.3100
      9 C9        -41.4145  -10.1394  -58.8249 C.ar      1 MOL         0.1000
     10 C10       -42.8472  -15.4597  -57.5483 C.ar      1 MOL         0.0825
     11 C11       -43.2585  -15.7994  -56.2564 C.ar      1 MOL         0.0825
     12 C12       -40.2107   -7.7593  -59.6794 C.ar      1 MOL         0.1900
     13 C13       -39.9387   -8.2548  -58.4091 C.ar      1 MOL         0.1770
     14 C14       -42.4362  -11.7438  -57.1275 C.ar      1 MOL         0.4100
     15 C15       -44.5209  -17.7778  -61.4219 C.3       1 MOL         0.2700
     16 C16       -46.0663  -16.2643  -60.3659 C.3       1 MOL         0.2700
     17 C17       -45.2969  -18.9419  -60.8194 C.3       1 MOL         0.2800
     18 C18       -46.8268  -17.4644  -59.8120 C.3       1 MOL         0.2800
     19 C19       -44.0032  -17.5009  -54.7572 C.3       1 MOL         0.2800
     20 C20       -42.3370  -15.7160  -60.8130 C.3       1 MOL         0.0000
     21 C21       -43.8481  -15.4795  -60.9388 C.3       1 MOL         0.2700
     22 C22       -41.8251  -16.3697  -59.5163 C.3       1 MOL         0.2800
     23 N1        -43.2041  -12.5453  -54.6039 N.ar      1 MOL        -0.6200
     24 N2        -42.5543  -10.8238  -56.1424 N.ar      1 MOL        -0.6200
     25 N3        -44.6546  -16.6256  -60.5280 N.3       1 MOL        -0.8100
     26 N4        -42.0561  -11.3292  -58.4280 N.pl3     1 MOL        -0.6000
     27 O1        -46.6741  -18.5944  -60.6720 O.3       1 MOL        -0.5600
     28 O2        -43.5258  -17.1285  -56.0441 O.3       1 MOL        -0.3625
     29 O3        -42.7766  -16.4776  -58.4591 O.3       1 MOL        -0.3625
     30 F1        -39.6452   -6.6182  -60.0972 F         1 MOL        -0.1900
     31 Cl1       -38.8673   -7.4138  -57.3571 Cl        1 MOL        -0.1770
     32 H1        -42.3450  -10.1419  -60.7830 H         1 MOL         0.1500
     33 H2        -41.2800   -8.0462  -61.5248 H         1 MOL         0.1500
     34 H3        -42.2606  -13.8638  -58.8562 H         1 MOL         0.1500
     35 H4        -43.6729  -15.0365  -54.2728 H         1 MOL         0.1500
     36 H5        -40.3133   -9.8211  -56.9878 H         1 MOL         0.1500
     37 H6        -43.0230  -10.5359  -54.1534 H         1 MOL         0.1500
     38 H7        -43.4750  -18.0816  -61.5300 H         1 MOL         0.0000
     39 H8        -44.9112  -17.5373  -62.4188 H         1 MOL         0.0000
     40 H9        -46.4946  -15.9578  -61.3284 H         1 MOL         0.0000
     41 H10       -46.1733  -15.4287  -59.6641 H         1 MOL         0.0000
     42 H11       -45.2377  -19.8108  -61.4811 H         1 MOL         0.0000
     43 H12       -44.8842  -19.2356  -59.8456 H         1 MOL         0.0000
     44 H13       -46.4843  -17.7250  -58.8026 H         1 MOL         0.0000
     45 H14       -47.8947  -17.2331  -59.7497 H         1 MOL         0.0000
     46 H15       -44.1855  -18.5799  -54.7698 H         1 MOL         0.0000
     47 H16       -44.9532  -17.0064  -54.5298 H         1 MOL         0.0000
     48 H17       -43.2536  -17.3001  -53.9848 H         1 MOL         0.0000
     49 H18       -41.9786  -16.3105  -61.6634 H         1 MOL         0.0000
     50 H19       -41.8344  -14.7474  -60.9330 H         1 MOL         0.0000
     51 H20       -44.0989  -14.6174  -60.3090 H         1 MOL         0.0000
     52 H21       -44.0850  -15.1804  -61.9680 H         1 MOL         0.0000
     53 H22       -41.5561  -17.4055  -59.7583 H         1 MOL         0.0000
     54 H23       -40.8918  -15.9052  -59.1740 H         1 MOL         0.0000
     55 H24       -42.5341  -11.8161  -59.1795 H         1 MOL         0.4000
@<TRIPOS>BOND
     1    1    2 ar
     2    1    9 ar
     3    2   12 ar
     4    3    7 ar
     5    3   10 ar
     6    4    8 ar
     7    4   11 ar
     8    5    9 ar
     9    5   13 ar
    10    6   23 ar
    11    6   24 ar
    12    7    8 ar
    13    7   14 ar
    14    8   23 ar
    15    9   26 1
    16   10   11 ar
    17   10   29 1
    18   11   28 1
    19   12   13 ar
    20   12   30 1
    21   13   31 1
    22   14   24 ar
    23   14   26 1
    24   15   17 1
    25   15   25 1
    26   16   18 1
    27   16   25 1
    28   17   27 1
    29   18   27 1
    30   19   28 1
    31   20   21 1
    32   20   22 1
    33   21   25 1
    34   22   29 1
    35    1   32 1
    36    2   33 1
    37    3   34 1
    38    4   35 1
    39    5   36 1
    40    6   37 1
    41   15   38 1
    42   15   39 1
    43   16   40 1
    44   16   41 1
    45   17   42 1
    46   17   43 1
    47   18   44 1
    48   18   45 1
    49   19   46 1
    50   19   47 1
    51   19   48 1
    52   20   49 1
    53   20   50 1
    54   21   51 1
    55   21   52 1
    56   22   53 1
    57   22   54 1
    58   26   55 1
