@<TRIPOS>MOLECULE
~{N}-(2-chloro-6-methyl-phenyl)-2-[[6-[4-(2-hydroxyethyl)piperazin-1-yl]-2-methyl-pyrimidin-4-yl]amino]thiazole-5-carboxamide
   59    62     0     0     0
SMALL
USER_CHARGES

@<TRIPOS>ATOM
      1 C1        -45.0961    4.0366  -63.9867 C.ar      1 MOL        -0.1500
      2 C2        -44.4395    2.9652  -64.5787 C.ar      1 MOL        -0.1500
      3 C3        -45.2648    4.0635  -62.6084 C.ar      1 MOL        -0.1500
      4 C4        -42.2321   -6.3450  -57.5271 C.ar      1 MOL        -0.1500
      5 C5        -42.0044   -1.1839  -60.0643 C.2       1 MOL         0.0772
      6 C6        -43.9471    1.9040  -63.8000 C.ar      1 MOL        -0.1435
      7 C7        -44.1205    1.9183  -62.3916 C.ar      1 MOL         0.1170
      8 C8        -44.7819    3.0182  -61.8085 C.ar      1 MOL         0.1770
      9 C9        -43.3547   -0.8993  -60.0343 C.2       1 MOL        -0.0450
     10 C10       -41.3229   -7.2718  -57.0304 C.ar      1 MOL         0.4100
     11 C11       -41.7893   -5.0922  -57.9561 C.ar      1 MOL         0.4100
     12 C12       -39.6513   -5.7066  -57.4080 C.ar      1 MOL         0.4765
     13 C13       -42.6876   -3.0109  -59.0145 C.2       1 MOL         0.4621
     14 C14       -44.1465    0.2011  -60.5512 C.2       1 MOL         0.7150
     15 C15       -40.9153   -9.3061  -55.7170 C.3       1 MOL         0.3691
     16 C16       -42.6962   -9.2758  -57.4441 C.3       1 MOL         0.3691
     17 C17       -41.7486  -10.3385  -54.9490 C.3       1 MOL         0.2700
     18 C18       -43.4735  -10.3033  -56.6185 C.3       1 MOL         0.2700
     19 C19       -43.2507    0.7737  -64.5147 C.3       1 MOL         0.1435
     20 C20       -38.1969   -5.3628  -57.3462 C.3       1 MOL         0.1435
     21 C21       -43.2472  -12.2244  -55.1166 C.3       1 MOL         0.2700
     22 C22       -44.0263  -13.2078  -55.9925 C.3       1 MOL         0.2800
     23 N1        -41.6249   -2.3868  -59.4797 N.2       1 MOL        -0.5653
     24 N2        -40.0127   -6.9363  -56.9652 N.ar      1 MOL        -0.6200
     25 N3        -40.4833   -4.7665  -57.9099 N.ar      1 MOL        -0.6200
     26 N4        -41.7861   -8.5162  -56.5825 N.pl3     1 MOL        -0.8382
     27 N5        -42.5520  -11.1652  -55.8668 N.3       1 MOL        -0.8100
     28 N6        -43.5825    0.8203  -61.6629 N.am      1 MOL        -0.5470
     29 N7        -42.7968   -4.2183  -58.4196 N.pl3     1 MOL        -0.5840
     30 O1        -45.2633    0.4538  -60.1036 O.2       1 MOL        -0.5700
     31 O2        -43.2010  -13.7353  -57.0219 O.3       1 MOL        -0.6800
     32 S1        -44.1728   -2.1599  -59.2288 S.3       1 MOL        -0.0800
     33 Cl1       -45.0033    3.2387  -60.1068 Cl        1 MOL        -0.1770
     34 H1        -45.4680    4.8542  -64.5965 H         1 MOL         0.1500
     35 H2        -44.3122    2.9619  -65.6588 H         1 MOL         0.1500
     36 H3        -45.7686    4.9179  -62.1617 H         1 MOL         0.1500
     37 H4        -43.2935   -6.5738  -57.5721 H         1 MOL         0.1500
     38 H5        -41.2394   -0.5600  -60.5081 H         1 MOL         0.1500
     39 H6        -40.4099   -8.6664  -54.9828 H         1 MOL         0.0000
     40 H7        -40.1453   -9.8070  -56.3166 H         1 MOL         0.0000
     41 H8        -42.1137   -9.7826  -58.2248 H         1 MOL         0.0000
     42 H9        -43.4288   -8.6437  -57.9553 H         1 MOL         0.0000
     43 H10       -41.0631  -10.9696  -54.3716 H         1 MOL         0.0000
     44 H11       -42.4021   -9.8246  -54.2297 H         1 MOL         0.0000
     45 H12       -44.1672   -9.7905  -55.9390 H         1 MOL         0.0000
     46 H13       -44.0762  -10.8889  -57.3203 H         1 MOL         0.0000
     47 H14       -42.1814    0.7812  -64.2835 H         1 MOL         0.0000
     48 H15       -43.6855   -0.1893  -64.2273 H         1 MOL         0.0000
     49 H16       -43.3596    0.8582  -65.6019 H         1 MOL         0.0000
     50 H17       -37.7275   -5.5691  -58.3122 H         1 MOL         0.0000
     51 H18       -38.0635   -4.3034  -57.1065 H         1 MOL         0.0000
     52 H19       -37.6911   -5.9531  -56.5757 H         1 MOL         0.0000
     53 H20       -43.9222  -11.7981  -54.3640 H         1 MOL         0.0000
     54 H21       -42.4878  -12.8084  -54.5805 H         1 MOL         0.0000
     55 H22       -44.9121  -12.7514  -56.4445 H         1 MOL         0.0000
     56 H23       -44.3697  -14.0493  -55.3820 H         1 MOL         0.0000
     57 H24       -42.8217    0.3236  -62.1194 H         1 MOL         0.3700
     58 H25       -43.7376   -4.5321  -58.1978 H         1 MOL         0.4000
     59 H26       -42.9038  -12.9851  -57.5652 H         1 MOL         0.4000
@<TRIPOS>BOND
     1    1    2 ar
     2    1    3 ar
     3    2    6 ar
     4    3    8 ar
     5    4   10 ar
     6    4   11 ar
     7    5    9 2
     8    5   23 1
     9    6    7 ar
    10    6   19 1
    11    7    8 ar
    12    7   28 1
    13    8   33 1
    14    9   14 1
    15    9   32 1
    16   10   24 ar
    17   10   26 1
    18   11   25 ar
    19   11   29 1
    20   12   20 1
    21   12   24 ar
    22   12   25 ar
    23   13   23 2
    24   13   29 1
    25   13   32 1
    26   14   28 am
    27   14   30 2
    28   15   17 1
    29   15   26 1
    30   16   18 1
    31   16   26 1
    32   17   27 1
    33   18   27 1
    34   21   22 1
    35   21   27 1
    36   22   31 1
    37    1   34 1
    38    2   35 1
    39    3   36 1
    40    4   37 1
    41    5   38 1
    42   15   39 1
    43   15   40 1
    44   16   41 1
    45   16   42 1
    46   17   43 1
    47   17   44 1
    48   18   45 1
    49   18   46 1
    50   19   47 1
    51   19   48 1
    52   19   49 1
    53   20   50 1
    54   20   51 1
    55   20   52 1
    56   21   53 1
    57   21   54 1
    58   22   55 1
    59   22   56 1
    60   28   57 1
    61   29   58 1
    62   31   59 1
