@<TRIPOS>MOLECULE
2g2f.A
159 106 53 0 0 
SMALL
USER_CHARGES


@<TRIPOS>ATOM
  1 O      -17.7522     9.3202    17.7420 O.3    1 HOH   0.0000 
  2 H1     -16.7922     9.3202    17.7420 H      1 HOH   0.0000 
  3 H2     -18.0425     9.9672    18.3891 H      1 HOH   0.0000 
  4 O       10.7136    21.1677    22.3342 O.3    2 HOH   0.0000 
  5 H1      11.6736    21.1677    22.3342 H      2 HOH   0.0000 
  6 H2      10.4233    21.8148    22.9812 H      2 HOH   0.0000 
  7 O      -15.3945    -0.1315    25.5896 O.3    3 HOH   0.0000 
  8 H1     -14.4345    -0.1315    25.5896 H      3 HOH   0.0000 
  9 H2     -15.6848     0.5156    26.2367 H      3 HOH   0.0000 
 10 O      -14.5516    11.7775    10.8997 O.3    4 HOH   0.0000 
 11 H1     -13.5916    11.7775    10.8997 H      4 HOH   0.0000 
 12 H2     -14.8419    12.4245    11.5467 H      4 HOH   0.0000 
 13 O      -14.4406     5.6673    22.2897 O.3    5 HOH   0.0000 
 14 H1     -13.4806     5.6673    22.2897 H      5 HOH   0.0000 
 15 H2     -14.7309     6.3143    22.9368 H      5 HOH   0.0000 
 16 O      -20.4879     8.0350    47.0158 O.3    6 HOH   0.0000 
 17 H1     -19.5279     8.0350    47.0158 H      6 HOH   0.0000 
 18 H2     -20.7782     8.6821    47.6628 H      6 HOH   0.0000 
 19 O      -12.9911    20.1413    46.2798 O.3    7 HOH   0.0000 
 20 H1     -12.0311    20.1413    46.2798 H      7 HOH   0.0000 
 21 H2     -13.2814    20.7883    46.9269 H      7 HOH   0.0000 
 22 O       -6.4417     9.6931    33.9759 O.3    8 HOH   0.0000 
 23 H1      -5.4817     9.6931    33.9759 H      8 HOH   0.0000 
 24 H2      -6.7320    10.3401    34.6230 H      8 HOH   0.0000 
 25 O      -23.8362    15.6588    34.5111 O.3    9 HOH   0.0000 
 26 H1     -22.8762    15.6588    34.5111 H      9 HOH   0.0000 
 27 H2     -24.1265    16.3059    35.1582 H      9 HOH   0.0000 
 28 O       -2.1254    24.1675    19.3723 O.3   10 HOH   0.0000 
 29 H1      -1.1654    24.1675    19.3723 H     10 HOH   0.0000 
 30 H2      -2.4157    24.8146    20.0194 H     10 HOH   0.0000 
 31 O        5.4888    34.6586    42.0549 O.3   11 HOH   0.0000 
 32 H1       6.4488    34.6586    42.0549 H     11 HOH   0.0000 
 33 H2       5.1985    35.3056    42.7019 H     11 HOH   0.0000 
 34 O       -9.3307     6.1817    22.9909 O.3   12 HOH   0.0000 
 35 H1      -8.3707     6.1817    22.9909 H     12 HOH   0.0000 
 36 H2      -9.6210     6.8288    23.6379 H     12 HOH   0.0000 
 37 O       -4.6003    30.0614    38.2924 O.3   13 HOH   0.0000 
 38 H1      -3.6403    30.0614    38.2924 H     13 HOH   0.0000 
 39 H2      -4.8906    30.7084    38.9394 H     13 HOH   0.0000 
 40 O      -14.5485     4.1829    42.9412 O.3   14 HOH   0.0000 
 41 H1     -13.5885     4.1829    42.9412 H     14 HOH   0.0000 
 42 H2     -14.8387     4.8300    43.5882 H     14 HOH   0.0000 
 43 O      -29.0703    15.7624    27.4768 O.3   15 HOH   0.0000 
 44 H1     -28.1103    15.7624    27.4768 H     15 HOH   0.0000 
 45 H2     -29.3605    16.4094    28.1239 H     15 HOH   0.0000 
 46 O       -9.3311     6.3487    34.0600 O.3   16 HOH   0.0000 
 47 H1      -8.3711     6.3487    34.0600 H     16 HOH   0.0000 
 48 H2      -9.6213     6.9957    34.7070 H     16 HOH   0.0000 
 49 O      -17.1245     7.2160    42.7822 O.3   17 HOH   0.0000 
 50 H1     -16.1645     7.2160    42.7822 H     17 HOH   0.0000 
 51 H2     -17.4147     7.8631    43.4292 H     17 HOH   0.0000 
 52 O      -11.8927     1.1033    35.9197 O.3   18 HOH   0.0000 
 53 H1     -10.9327     1.1033    35.9197 H     18 HOH   0.0000 
 54 H2     -12.1830     1.7503    36.5667 H     18 HOH   0.0000 
 55 O       -5.5912    23.6946    47.0045 O.3   19 HOH   0.0000 
 56 H1      -4.6312    23.6946    47.0045 H     19 HOH   0.0000 
 57 H2      -5.8815    24.3417    47.6515 H     19 HOH   0.0000 
 58 O       -3.5984    15.0062    25.0061 O.3   20 HOH   0.0000 
 59 H1      -2.6384    15.0062    25.0061 H     20 HOH   0.0000 
 60 H2      -3.8887    15.6533    25.6532 H     20 HOH   0.0000 
 61 O       -6.9088     5.5834    21.5632 O.3   21 HOH   0.0000 
 62 H1      -5.9488     5.5834    21.5632 H     21 HOH   0.0000 
 63 H2      -7.1990     6.2304    22.2102 H     21 HOH   0.0000 
 64 O       -9.6472    -3.0370    31.7975 O.3   22 HOH   0.0000 
 65 H1      -8.6872    -3.0370    31.7975 H     22 HOH   0.0000 
 66 H2      -9.9375    -2.3899    32.4446 H     22 HOH   0.0000 
 67 O       -2.3755    22.4608    16.6156 O.3   23 HOH   0.0000 
 68 H1      -1.4155    22.4608    16.6156 H     23 HOH   0.0000 
 69 H2      -2.6658    23.1079    17.2626 H     23 HOH   0.0000 
 70 O      -15.4286     4.8940    40.2236 O.3   24 HOH   0.0000 
 71 H1     -14.4686     4.8940    40.2236 H     24 HOH   0.0000 
 72 H2     -15.7189     5.5411    40.8707 H     24 HOH   0.0000 
 73 O       -1.9559    11.7061    38.8849 O.3   25 HOH  -0.8340 
 74 H1      -2.1645    12.1788    38.0791 H     25 HOH   0.4170 
 75 H2      -2.7496    11.2096    39.0842 H     25 HOH   0.4170 
 76 O      -12.3387    12.3118    46.9115 O.3   26 HOH   0.0000 
 77 H1     -11.3787    12.3118    46.9115 H     26 HOH   0.0000 
 78 H2     -12.6290    12.9588    47.5586 H     26 HOH   0.0000 
 79 O      -24.2934     3.8548    23.6574 O.3   27 HOH   0.0000 
 80 H1     -23.3334     3.8548    23.6574 H     27 HOH   0.0000 
 81 H2     -24.5836     4.5019    24.3045 H     27 HOH   0.0000 
 82 O       -2.0041    10.9549    23.7452 O.3   28 HOH   0.0000 
 83 H1      -1.0441    10.9549    23.7452 H     28 HOH   0.0000 
 84 H2      -2.2944    11.6020    24.3923 H     28 HOH   0.0000 
 85 O      -28.5192     6.0650    31.7596 O.3   29 HOH   0.0000 
 86 H1     -27.5592     6.0650    31.7596 H     29 HOH   0.0000 
 87 H2     -28.8094     6.7120    32.4066 H     29 HOH   0.0000 
 88 O        0.4336    26.9550    46.8746 O.3   30 HOH   0.0000 
 89 H1       1.3936    26.9550    46.8746 H     30 HOH   0.0000 
 90 H2       0.1433    27.6020    47.5217 H     30 HOH   0.0000 
 91 O      -18.1489     7.9673    14.7958 O.3   31 HOH   0.0000 
 92 H1     -17.1889     7.9673    14.7958 H     31 HOH   0.0000 
 93 H2     -18.4391     8.6144    15.4429 H     31 HOH   0.0000 
 94 O       14.2644    29.2211    32.3666 O.3   32 HOH   0.0000 
 95 H1      15.2244    29.2211    32.3666 H     32 HOH   0.0000 
 96 H2      13.9741    29.8681    33.0136 H     32 HOH   0.0000 
 97 O       -3.2857     3.7322    27.1080 O.3   33 HOH   0.0000 
 98 H1      -2.3257     3.7322    27.1080 H     33 HOH   0.0000 
 99 H2      -3.5760     4.3792    27.7550 H     33 HOH   0.0000 
100 O      -30.4425    13.2961    29.3823 O.3   34 HOH   0.0000 
101 H1     -29.4825    13.2961    29.3823 H     34 HOH   0.0000 
102 H2     -30.7328    13.9432    30.0294 H     34 HOH   0.0000 
103 O       -0.5797    11.6777    35.5359 O.3   35 HOH  -0.8340 
104 H1      -0.6454    12.5703    35.1965 H     35 HOH   0.4170 
105 H2      -0.2732    11.7853    36.4363 H     35 HOH   0.4170 
106 O       -3.6171    12.1829    26.2981 O.3   36 HOH   0.0000 
107 H1      -2.6571    12.1829    26.2981 H     36 HOH   0.0000 
108 H2      -3.9073    12.8300    26.9452 H     36 HOH   0.0000 
109 O      -30.1861    10.0068    31.3164 O.3   37 HOH   0.0000 
110 H1     -29.2261    10.0068    31.3164 H     37 HOH   0.0000 
111 H2     -30.4763    10.6538    31.9635 H     37 HOH   0.0000 
112 O       -9.0306    11.9942    47.2201 O.3   38 HOH   0.0000 
113 H1      -8.0706    11.9942    47.2201 H     38 HOH   0.0000 
114 H2      -9.3209    12.6412    47.8671 H     38 HOH   0.0000 
115 O      -27.8480    -0.2995    37.6755 O.3   39 HOH   0.0000 
116 H1     -26.8880    -0.2995    37.6755 H     39 HOH   0.0000 
117 H2     -28.1383     0.3476    38.3225 H     39 HOH   0.0000 
118 O       -3.1121    31.2027    16.5704 O.3   40 HOH   0.0000 
119 H1      -2.1521    31.2027    16.5704 H     40 HOH   0.0000 
120 H2      -3.4024    31.8498    17.2175 H     40 HOH   0.0000 
121 O      -27.3143    12.9895    35.5894 O.3   41 HOH   0.0000 
122 H1     -26.3543    12.9895    35.5894 H     41 HOH   0.0000 
123 H2     -27.6046    13.6365    36.2364 H     41 HOH   0.0000 
124 O       -9.2555    22.0259    51.8044 O.3   42 HOH   0.0000 
125 H1      -8.2955    22.0259    51.8044 H     42 HOH   0.0000 
126 H2      -9.5458    22.6729    52.4515 H     42 HOH   0.0000 
127 O      -21.9900    13.3914    17.6608 O.3   43 HOH   0.0000 
128 H1     -21.0300    13.3914    17.6608 H     43 HOH   0.0000 
129 H2     -22.2803    14.0385    18.3079 H     43 HOH   0.0000 
130 O       -4.2773    -0.3990    19.6429 O.3   44 HOH   0.0000 
131 H1      -3.3173    -0.3990    19.6429 H     44 HOH   0.0000 
132 H2      -4.5675     0.2481    20.2900 H     44 HOH   0.0000 
133 O      -13.4550    14.2886    49.1239 O.3   45 HOH   0.0000 
134 H1     -12.4950    14.2886    49.1239 H     45 HOH   0.0000 
135 H2     -13.7452    14.9357    49.7709 H     45 HOH   0.0000 
136 O      -21.6119    25.5739    21.4452 O.3   46 HOH   0.0000 
137 H1     -20.6519    25.5739    21.4452 H     46 HOH   0.0000 
138 H2     -21.9022    26.2209    22.0922 H     46 HOH   0.0000 
139 O        0.0407    27.1647    52.1305 O.3   47 HOH   0.0000 
140 H1       1.0007    27.1647    52.1305 H     47 HOH   0.0000 
141 H2      -0.2496    27.8117    52.7775 H     47 HOH   0.0000 
142 O       -5.0976    -2.4242    17.2412 O.3   48 HOH   0.0000 
143 H1      -4.1376    -2.4242    17.2412 H     48 HOH   0.0000 
144 H2      -5.3879    -1.7772    17.8882 H     48 HOH   0.0000 
145 O       -5.4988    26.5229    44.9789 O.3   49 HOH   0.0000 
146 H1      -4.5388    26.5229    44.9789 H     49 HOH   0.0000 
147 H2      -5.7891    27.1699    45.6260 H     49 HOH   0.0000 
148 O      -23.9838    12.7602    35.9156 O.3   50 HOH   0.0000 
149 H1     -23.0238    12.7602    35.9156 H     50 HOH   0.0000 
150 H2     -24.2741    13.4072    36.5626 H     50 HOH   0.0000 
151 O      -26.5069     3.8805    29.5829 O.3   51 HOH   0.0000 
152 H1     -25.5469     3.8805    29.5829 H     51 HOH   0.0000 
153 H2     -26.7972     4.5276    30.2299 H     51 HOH   0.0000 
154 O      -22.0290    32.5934    30.8733 O.3   52 HOH   0.0000 
155 H1     -21.0690    32.5934    30.8733 H     52 HOH   0.0000 
156 H2     -22.3192    33.2404    31.5203 H     52 HOH   0.0000 
157 O      -13.1933    29.1629    35.0424 O.3   53 HOH   0.0000 
158 H1     -12.2333    29.1629    35.0424 H     53 HOH   0.0000 
159 H2     -13.4835    29.8100    35.6895 H     53 HOH   0.0000 
@<TRIPOS>BOND
  1   1   2  1   
  2   1   3  1   
  3   4   5  1   
  4   4   6  1   
  5   7   8  1   
  6   7   9  1   
  7  10  11  1   
  8  10  12  1   
  9  13  14  1   
 10  13  15  1   
 11  16  17  1   
 12  16  18  1   
 13  19  20  1   
 14  19  21  1   
 15  22  23  1   
 16  22  24  1   
 17  25  26  1   
 18  25  27  1   
 19  28  29  1   
 20  28  30  1   
 21  31  32  1   
 22  31  33  1   
 23  34  35  1   
 24  34  36  1   
 25  37  38  1   
 26  37  39  1   
 27  40  41  1   
 28  40  42  1   
 29  43  44  1   
 30  43  45  1   
 31  46  47  1   
 32  46  48  1   
 33  49  50  1   
 34  49  51  1   
 35  52  53  1   
 36  52  54  1   
 37  55  56  1   
 38  55  57  1   
 39  58  59  1   
 40  58  60  1   
 41  61  62  1   
 42  61  63  1   
 43  64  65  1   
 44  64  66  1   
 45  67  68  1   
 46  67  69  1   
 47  70  71  1   
 48  70  72  1   
 49  73  74  1   
 50  73  75  1   
 51  76  77  1   
 52  76  78  1   
 53  79  80  1   
 54  79  81  1   
 55  82  83  1   
 56  82  84  1   
 57  85  86  1   
 58  85  87  1   
 59  88  89  1   
 60  88  90  1   
 61  91  92  1   
 62  91  93  1   
 63  94  95  1   
 64  94  96  1   
 65  97  98  1   
 66  97  99  1   
 67 100 101  1   
 68 100 102  1   
 69 103 104  1   
 70 103 105  1   
 71 106 107  1   
 72 106 108  1   
 73 109 110  1   
 74 109 111  1   
 75 112 113  1   
 76 112 114  1   
 77 115 116  1   
 78 115 117  1   
 79 118 119  1   
 80 118 120  1   
 81 121 122  1   
 82 121 123  1   
 83 124 125  1   
 84 124 126  1   
 85 127 128  1   
 86 127 129  1   
 87 130 131  1   
 88 130 132  1   
 89 133 134  1   
 90 133 135  1   
 91 136 137  1   
 92 136 138  1   
 93 139 140  1   
 94 139 141  1   
 95 142 143  1   
 96 142 144  1   
 97 145 146  1   
 98 145 147  1   
 99 148 149  1   
100 148 150  1   
101 151 152  1   
102 151 153  1   
103 154 155  1   
104 154 156  1   
105 157 158  1   
106 157 159  1   
@<TRIPOS>SUBSTRUCTURE
  1 HOH   1 GROUP 4 A **** 0
  2 HOH   4 GROUP 4 A **** 0
  3 HOH   7 GROUP 4 A **** 0
  4 HOH  10 GROUP 4 A **** 0
  5 HOH  13 GROUP 4 A **** 0
  6 HOH  16 GROUP 4 A **** 0
  7 HOH  19 GROUP 4 A **** 0
  8 HOH  22 GROUP 4 A **** 0
  9 HOH  25 GROUP 4 A **** 0
 10 HOH  28 GROUP 4 A **** 0
 11 HOH  31 GROUP 4 A **** 0
 12 HOH  34 GROUP 4 A **** 0
 13 HOH  37 GROUP 4 A **** 0
 14 HOH  40 GROUP 4 A **** 0
 15 HOH  43 GROUP 4 A **** 0
 16 HOH  46 GROUP 4 A **** 0
 17 HOH  49 GROUP 4 A **** 0
 18 HOH  52 GROUP 4 A **** 0
 19 HOH  55 GROUP 4 A **** 0
 20 HOH  58 GROUP 4 A **** 0
 21 HOH  61 GROUP 4 A **** 0
 22 HOH  64 GROUP 4 A **** 0
 23 HOH  67 GROUP 4 A **** 0
 24 HOH  70 GROUP 4 A **** 0
 25 HOH  73 GROUP 4 A **** 0
 26 HOH  76 GROUP 4 A **** 0
 27 HOH  79 GROUP 4 A **** 0
 28 HOH  82 GROUP 4 A **** 0
 29 HOH  85 GROUP 4 A **** 0
 30 HOH  88 GROUP 4 A **** 0
 31 HOH  91 GROUP 4 A **** 0
 32 HOH  94 GROUP 4 A **** 0
 33 HOH  97 GROUP 4 A **** 0
 34 HOH 100 GROUP 4 A **** 0
 35 HOH 103 GROUP 4 A **** 0
 36 HOH 106 GROUP 4 A **** 0
 37 HOH 109 GROUP 4 A **** 0
 38 HOH 112 GROUP 4 A **** 0
 39 HOH 115 GROUP 4 A **** 0
 40 HOH 118 GROUP 4 A **** 0
 41 HOH 121 GROUP 4 A **** 0
 42 HOH 124 GROUP 4 A **** 0
 43 HOH 127 GROUP 4 A **** 0
 44 HOH 130 GROUP 4 A **** 0
 45 HOH 133 GROUP 4 A **** 0
 46 HOH 136 GROUP 4 A **** 0
 47 HOH 139 GROUP 4 A **** 0
 48 HOH 142 GROUP 4 A **** 0
 49 HOH 145 GROUP 4 A **** 0
 50 HOH 148 GROUP 4 A **** 0
 51 HOH 151 GROUP 4 A **** 0
 52 HOH 154 GROUP 4 A **** 0
 53 HOH 157 GROUP 4 A **** 0

# MOE 2012.10 (io_trps.svl 2012.10)
