@<TRIPOS>MOLECULE
2f4j.A
62 66 1 0 0 
SMALL
USER_CHARGES


@<TRIPOS>ATOM
  1 N1      -3.4963    13.4725    49.6301 N.4   1 VX6  -0.9590 
  2 H1      -2.9045    13.7281    50.4076 H     1 VX6   0.4500 
  3 C2      -2.6670    12.7154    48.6368 C.3   1 VX6   0.3430 
  4 H21     -3.3156    12.3807    47.8273 H     1 VX6   0.0800 
  5 H22     -2.2331    11.8492    49.1364 H     1 VX6   0.0800 
  6 C3      -1.5314    13.5515    48.0373 C.3   1 VX6   0.2091 
  7 H31     -1.1354    13.0011    47.1838 H     1 VX6   0.0800 
  8 H32     -0.7577    13.6463    48.7991 H     1 VX6   0.0800 
  9 N4      -1.8838    14.9957    47.5428 N.pl3 1 VX6  -0.8382 
 10 C5      -2.8908    15.6891    48.4777 C.3   1 VX6   0.2091 
 11 H51     -3.3858    16.4805    47.9150 H     1 VX6   0.0800 
 12 H52     -2.3364    16.1261    49.3083 H     1 VX6   0.0800 
 13 C6      -3.9941    14.7505    49.0699 C.3   1 VX6   0.3430 
 14 H61     -4.5063    15.2914    49.8656 H     1 VX6   0.0800 
 15 H62     -4.7021    14.5177    48.2746 H     1 VX6   0.0800 
 16 C7      -4.5971    12.5977    50.1909 C.3   1 VX6   0.2630 
 17 H71     -4.1650    11.6779    50.5850 H     1 VX6   0.0800 
 18 H72     -5.3074    12.3559    49.4002 H     1 VX6   0.0800 
 19 H73     -5.1116    13.1295    50.9912 H     1 VX6   0.0800 
 20 C8      -1.3091    15.6546    46.3949 C.ar  1 VX6   0.4100 
 21 C9      -1.4335    17.1057    46.1878 C.ar  1 VX6  -0.1500 
 22 H9      -1.9712    17.7287    46.8873 H     1 VX6   0.1500 
 23 C10     -0.8126    17.6602    45.0206 C.ar  1 VX6   0.4100 
 24 N11     -0.1449    16.8140    44.1964 N.ar  1 VX6  -0.6200 
 25 C12     -0.0706    15.5103    44.4231 C.ar  1 VX6   0.7215 
 26 N13     -0.6221    14.9180    45.4718 N.ar  1 VX6  -0.6200 
 27 N14     -0.9235    19.0101    44.8125 N.pl3 1 VX6  -0.5840 
 28 H14     -1.5238    19.4623    45.4872 H     1 VX6   0.4000 
 29 C15     -0.3716    19.9370    43.8392 C.2   1 VX6  -0.0676 
 30 C17      0.3866    19.5894    42.7097 C.2   1 VX6  -0.1500 
 31 H17      0.6836    18.5976    42.4024 H     1 VX6   0.1500 
 32 C18      0.6754    20.7915    42.0689 C.2   1 VX6   0.1078 
 33 N19      0.1101    21.8551    42.7886 N.2   1 VX6  -0.7068 
 34 N20     -0.5253    21.3307    43.8644 N.pl3 1 VX6   0.2996 
 35 H20     -1.0260    21.8558    44.5671 H     1 VX6   0.2700 
 36 C21      1.4560    21.0189    40.7939 C.3   1 VX6  -0.0590 
 37 H211     1.8020    20.0616    40.4042 H     1 VX6   0.0800 
 38 H212     2.3140    21.6580    41.0023 H     1 VX6   0.0800 
 39 H213     0.8145    21.5010    40.0562 H     1 VX6   0.0800 
 40 S23      0.8304    14.5107    43.2117 S.3   1 VX6  -0.2030 
 41 C24      1.4813    15.5675    42.0046 C.ar  1 VX6   0.1015 
 42 C25      0.9031    15.6167    40.7297 C.ar  1 VX6  -0.1500 
 43 H25      0.0751    14.9698    40.4804 H     1 VX6   0.1500 
 44 C26      1.4211    16.5323    39.7628 C.ar  1 VX6  -0.1500 
 45 H26      0.9777    16.5787    38.7792 H     1 VX6   0.1500 
 46 C27      2.4966    17.3690    40.0777 C.ar  1 VX6   0.1170 
 47 C28      3.0805    17.3135    41.3707 C.ar  1 VX6  -0.1500 
 48 H28      3.9083    17.9584    41.6258 H     1 VX6   0.1500 
 49 C29      2.5497    16.3786    42.3439 C.ar  1 VX6  -0.1500 
 50 H29      2.9866    16.3157    43.3296 H     1 VX6   0.1500 
 51 N30      3.0267    18.3117    39.1318 N.am  1 VX6  -0.5470 
 52 H30      2.5480    18.2815    38.2430 H     1 VX6   0.3700 
 53 C31      4.0291    19.2393    39.1576 C.2   1 VX6   0.6300 
 54 O32      4.7440    19.4829    40.1271 O.2   1 VX6  -0.5700 
 55 C33      4.1956    20.0206    37.8537 C.3   1 VX6  -0.1000 
 56 H33      4.0909    19.0101    37.4587 H     1 VX6   0.1000 
 57 C34      3.6141    21.4778    37.6713 C.3   1 VX6  -0.2000 
 58 H341     3.3122    22.0610    38.5412 H     1 VX6   0.1000 
 59 H342     2.9527    21.7039    36.8349 H     1 VX6   0.1000 
 60 C35      5.1108    21.1699    37.4204 C.3   1 VX6  -0.2000 
 61 H351     5.5043    21.1935    36.4042 H     1 VX6   0.1000 
 62 H352     5.8637    21.5506    38.1106 H     1 VX6   0.1000 
@<TRIPOS>BOND
  1   1   2  1   
  2   1   3  1   
  3   1  13  1   
  4   1  16  1   
  5   3   4  1   
  6   3   5  1   
  7   3   6  1   
  8   6   7  1   
  9   6   8  1   
 10   6   9  1   
 11   9  10  1   
 12   9  20  1   
 13  10  11  1   
 14  10  12  1   
 15  10  13  1   
 16  13  14  1   
 17  13  15  1   
 18  16  17  1   
 19  16  18  1   
 20  16  19  1   
 21  20  21  ar  
 22  20  26  ar  
 23  21  22  1   
 24  21  23  ar  
 25  23  24  ar  
 26  23  27  1   
 27  24  25  ar  
 28  25  26  ar  
 29  25  40  1   
 30  27  28  1   
 31  27  29  1   
 32  29  30  2   
 33  29  34  1   
 34  30  31  1   
 35  30  32  1   
 36  32  33  2   
 37  32  36  1   
 38  33  34  1   
 39  34  35  1   
 40  36  37  1   
 41  36  38  1   
 42  36  39  1   
 43  40  41  1   
 44  41  42  ar  
 45  41  49  ar  
 46  42  43  1   
 47  42  44  ar  
 48  44  45  1   
 49  44  46  ar  
 50  46  47  ar  
 51  46  51  1   
 52  47  48  1   
 53  47  49  ar  
 54  49  50  1   
 55  51  52  1   
 56  51  53  am  
 57  53  54  2   
 58  53  55  1   
 59  55  56  1   
 60  55  57  1   
 61  55  60  1   
 62  57  58  1   
 63  57  59  1   
 64  57  60  1   
 65  60  61  1   
 66  60  62  1   
@<TRIPOS>SUBSTRUCTURE
  1 VX6  24 GROUP 4 A **** 0

# MOE 2012.10 (io_trps.svl 2012.10)
