@<TRIPOS>MOLECULE
2f4j.A
633 422 211 0 0 
SMALL
USER_CHARGES


@<TRIPOS>ATOM
  1 O       -6.9710     6.0945    21.3392 O.3     1 HOH   0.0000 
  2 H1      -6.0110     6.0945    21.3392 H       1 HOH   0.0000 
  3 H2      -7.2613     6.7415    21.9863 H       1 HOH   0.0000 
  4 O      -17.7708     9.0839    17.7267 O.3     2 HOH   0.0000 
  5 H1     -16.8108     9.0839    17.7267 H       2 HOH   0.0000 
  6 H2     -18.0611     9.7310    18.3738 H       2 HOH   0.0000 
  7 O        1.7841    28.6579    35.2945 O.3     3 HOH   0.0000 
  8 H1       2.7441    28.6579    35.2945 H       3 HOH   0.0000 
  9 H2       1.4938    29.3049    35.9415 H       3 HOH   0.0000 
 10 O        8.7942    19.4992    57.7123 O.3     4 HOH   0.0000 
 11 H1       9.7542    19.4992    57.7123 H       4 HOH   0.0000 
 12 H2       8.5039    20.1462    58.3594 H       4 HOH   0.0000 
 13 O       -8.9908     6.7987    22.8140 O.3     5 HOH   0.0000 
 14 H1      -8.0308     6.7987    22.8140 H       5 HOH   0.0000 
 15 H2      -9.2811     7.4457    23.4611 H       5 HOH   0.0000 
 16 O       -3.2124    12.0851    27.6597 O.3     6 HOH   0.0000 
 17 H1      -2.2524    12.0851    27.6597 H       6 HOH   0.0000 
 18 H2      -3.5027    12.7322    28.3067 H       6 HOH   0.0000 
 19 O      -16.2148     9.4220    13.1566 O.3     7 HOH   0.0000 
 20 H1     -15.2548     9.4220    13.1566 H       7 HOH   0.0000 
 21 H2     -16.5051    10.0691    13.8037 H       7 HOH   0.0000 
 22 O        1.8594    18.3229    28.7735 O.3     8 HOH   0.0000 
 23 H1       2.8194    18.3229    28.7735 H       8 HOH   0.0000 
 24 H2       1.5691    18.9700    29.4206 H       8 HOH   0.0000 
 25 O       -2.5712    13.1459    44.0411 O.3     9 HOH  -0.8340 
 26 H1      -1.9583    13.5110    44.6793 H       9 HOH   0.4170 
 27 H2      -3.0229    12.4474    44.5146 H       9 HOH   0.4170 
 28 O      -13.0130    19.7511    46.9808 O.3    10 HOH   0.0000 
 29 H1     -12.0530    19.7511    46.9808 H      10 HOH   0.0000 
 30 H2     -13.3033    20.3981    47.6279 H      10 HOH   0.0000 
 31 O       -8.8497     6.1246    34.1310 O.3    11 HOH   0.0000 
 32 H1      -7.8897     6.1246    34.1310 H      11 HOH   0.0000 
 33 H2      -9.1400     6.7717    34.7780 H      11 HOH   0.0000 
 34 O      -14.9031    12.0931    11.3012 O.3    12 HOH   0.0000 
 35 H1     -13.9431    12.0931    11.3012 H      12 HOH   0.0000 
 36 H2     -15.1934    12.7401    11.9482 H      12 HOH   0.0000 
 37 O      -13.9384     5.5990    22.6096 O.3    13 HOH   0.0000 
 38 H1     -12.9784     5.5990    22.6096 H      13 HOH   0.0000 
 39 H2     -14.2286     6.2461    23.2567 H      13 HOH   0.0000 
 40 O        3.6465    21.5198    34.5486 O.3    14 HOH  -0.8340 
 41 H1       4.3120    20.8386    34.6450 H      14 HOH   0.4170 
 42 H2       4.0868    22.3255    34.8189 H      14 HOH   0.4170 
 43 O       -4.2223    15.8087    25.2206 O.3    15 HOH   0.0000 
 44 H1      -3.2623    15.8087    25.2206 H      15 HOH   0.0000 
 45 H2      -4.5126    16.4557    25.8677 H      15 HOH   0.0000 
 46 O        5.3992    22.3382    41.0491 O.3    16 HOH  -0.8340 
 47 H1       4.4671    22.5235    41.1628 H      16 HOH   0.4170 
 48 H2       5.8313    22.8540    41.7299 H      16 HOH   0.4170 
 49 O      -16.7524     6.7920    45.5153 O.3    17 HOH   0.0000 
 50 H1     -15.7924     6.7920    45.5153 H      17 HOH   0.0000 
 51 H2     -17.0427     7.4391    46.1623 H      17 HOH   0.0000 
 52 O       12.3064    34.3213    33.7369 O.3    18 HOH   0.0000 
 53 H1      13.2664    34.3213    33.7369 H      18 HOH   0.0000 
 54 H2      12.0161    34.9684    34.3840 H      18 HOH   0.0000 
 55 O        2.2120    32.1302    34.4378 O.3    19 HOH   0.0000 
 56 H1       3.1720    32.1302    34.4378 H      19 HOH   0.0000 
 57 H2       1.9217    32.7773    35.0849 H      19 HOH   0.0000 
 58 O       -0.2535    27.4704    47.1678 O.3    20 HOH   0.0000 
 59 H1       0.7065    27.4704    47.1678 H      20 HOH   0.0000 
 60 H2      -0.5438    28.1174    47.8149 H      20 HOH   0.0000 
 61 O        5.6773    11.2004    42.5859 O.3    21 HOH   0.0000 
 62 H1       6.6373    11.2004    42.5859 H      21 HOH   0.0000 
 63 H2       5.3870    11.8475    43.2330 H      21 HOH   0.0000 
 64 O      -17.9593    -1.2748    11.8522 O.3    22 HOH   0.0000 
 65 H1     -16.9993    -1.2748    11.8522 H      22 HOH   0.0000 
 66 H2     -18.2496    -0.6277    12.4993 H      22 HOH   0.0000 
 67 O        7.6829    36.6265    40.5058 O.3    23 HOH   0.0000 
 68 H1       8.6429    36.6265    40.5058 H      23 HOH   0.0000 
 69 H2       7.3927    37.2736    41.1529 H      23 HOH   0.0000 
 70 O       -2.5928    29.8487    35.6789 O.3    24 HOH   0.0000 
 71 H1      -1.6328    29.8487    35.6789 H      24 HOH   0.0000 
 72 H2      -2.8831    30.4957    36.3259 H      24 HOH   0.0000 
 73 O       -2.9285     3.9401    27.5310 O.3    25 HOH   0.0000 
 74 H1      -1.9685     3.9401    27.5310 H      25 HOH   0.0000 
 75 H2      -3.2187     4.5871    28.1780 H      25 HOH   0.0000 
 76 O       -6.5029    12.7867    44.5911 O.3    26 HOH  -0.8340 
 77 H1      -6.9631    13.5413    44.9589 H      26 HOH   0.4170 
 78 H2      -6.7288    12.7979    43.6610 H      26 HOH   0.4170 
 79 O       -8.0421    25.2840    46.6781 O.3    27 HOH   0.0000 
 80 H1      -7.0821    25.2840    46.6781 H      27 HOH   0.0000 
 81 H2      -8.3324    25.9311    47.3252 H      27 HOH   0.0000 
 82 O       11.4741    35.2894    43.9618 O.3    28 HOH   0.0000 
 83 H1      12.4341    35.2894    43.9618 H      28 HOH   0.0000 
 84 H2      11.1838    35.9365    44.6089 H      28 HOH   0.0000 
 85 O       -4.7240    29.3585    38.4609 O.3    29 HOH   0.0000 
 86 H1      -3.7640    29.3585    38.4609 H      29 HOH   0.0000 
 87 H2      -5.0143    30.0056    39.1079 H      29 HOH   0.0000 
 88 O       -4.6822    -1.9250    16.6816 O.3    30 HOH   0.0000 
 89 H1      -3.7222    -1.9250    16.6816 H      30 HOH   0.0000 
 90 H2      -4.9725    -1.2779    17.3287 H      30 HOH   0.0000 
 91 O       -3.6224     0.1717    19.3533 O.3    31 HOH   0.0000 
 92 H1      -2.6624     0.1717    19.3533 H      31 HOH   0.0000 
 93 H2      -3.9127     0.8187    20.0003 H      31 HOH   0.0000 
 94 O      -13.2411    27.5132    38.7936 O.3    32 HOH   0.0000 
 95 H1     -12.2811    27.5132    38.7936 H      32 HOH   0.0000 
 96 H2     -13.5314    28.1603    39.4406 H      32 HOH   0.0000 
 97 O       -4.5591    16.1628    15.3948 O.3    33 HOH   0.0000 
 98 H1      -3.5991    16.1628    15.3948 H      33 HOH   0.0000 
 99 H2      -4.8494    16.8098    16.0418 H      33 HOH   0.0000 
100 O       10.7359    32.4052    52.0869 O.3    34 HOH   0.0000 
101 H1      11.6959    32.4052    52.0869 H      34 HOH   0.0000 
102 H2      10.4456    33.0523    52.7339 H      34 HOH   0.0000 
103 O       13.7223    21.8853    53.7781 O.3    35 HOH   0.0000 
104 H1      14.6823    21.8853    53.7781 H      35 HOH   0.0000 
105 H2      13.4320    22.5323    54.4251 H      35 HOH   0.0000 
106 O        5.7934    19.9915    13.9902 O.3    36 HOH   0.0000 
107 H1       6.7534    19.9915    13.9902 H      36 HOH   0.0000 
108 H2       5.5031    20.6385    14.6373 H      36 HOH   0.0000 
109 O      -14.9257    25.8684    43.2430 O.3    37 HOH   0.0000 
110 H1     -13.9657    25.8684    43.2430 H      37 HOH   0.0000 
111 H2     -15.2159    26.5154    43.8900 H      37 HOH   0.0000 
112 O      -22.8332     6.1409    42.0761 O.3    38 HOH   0.0000 
113 H1     -21.8732     6.1409    42.0761 H      38 HOH   0.0000 
114 H2     -23.1235     6.7880    42.7231 H      38 HOH   0.0000 
115 O      -17.8474     3.0697    39.8106 O.3    39 HOH   0.0000 
116 H1     -16.8874     3.0697    39.8106 H      39 HOH   0.0000 
117 H2     -18.1377     3.7168    40.4576 H      39 HOH   0.0000 
118 O       -5.9936    23.8185    47.4841 O.3    40 HOH   0.0000 
119 H1      -5.0336    23.8185    47.4841 H      40 HOH   0.0000 
120 H2      -6.2838    24.4655    48.1312 H      40 HOH   0.0000 
121 O      -11.7504    12.0038    47.1086 O.3    41 HOH   0.0000 
122 H1     -10.7904    12.0038    47.1086 H      41 HOH   0.0000 
123 H2     -12.0407    12.6508    47.7556 H      41 HOH   0.0000 
124 O      -19.2000     1.2685    19.3589 O.3    42 HOH   0.0000 
125 H1     -18.2400     1.2685    19.3589 H      42 HOH   0.0000 
126 H2     -19.4903     1.9155    20.0060 H      42 HOH   0.0000 
127 O      -15.3811    13.4701    48.5552 O.3    43 HOH   0.0000 
128 H1     -14.4211    13.4701    48.5552 H      43 HOH   0.0000 
129 H2     -15.6714    14.1171    49.2023 H      43 HOH   0.0000 
130 O        4.3750     9.9563    47.8335 O.3    44 HOH   0.0000 
131 H1       5.3350     9.9563    47.8335 H      44 HOH   0.0000 
132 H2       4.0847    10.6033    48.4806 H      44 HOH   0.0000 
133 O       12.3303    16.8223    51.9117 O.3    45 HOH   0.0000 
134 H1      13.2903    16.8223    51.9117 H      45 HOH   0.0000 
135 H2      12.0401    17.4694    52.5587 H      45 HOH   0.0000 
136 O       -0.7480    20.3356    54.0101 O.3    46 HOH   0.0000 
137 H1       0.2120    20.3356    54.0101 H      46 HOH   0.0000 
138 H2      -1.0382    20.9826    54.6572 H      46 HOH   0.0000 
139 O      -23.7350    14.9089    35.5788 O.3    47 HOH   0.0000 
140 H1     -22.7750    14.9089    35.5788 H      47 HOH   0.0000 
141 H2     -24.0253    15.5560    36.2259 H      47 HOH   0.0000 
142 O       -8.9447    29.7396    40.5216 O.3    48 HOH   0.0000 
143 H1      -7.9847    29.7396    40.5216 H      48 HOH   0.0000 
144 H2      -9.2350    30.3867    41.1686 H      48 HOH   0.0000 
145 O      -26.0112    12.5768    41.5461 O.3    49 HOH   0.0000 
146 H1     -25.0512    12.5768    41.5461 H      49 HOH   0.0000 
147 H2     -26.3014    13.2239    42.1931 H      49 HOH   0.0000 
148 O       -0.5954    27.8461    34.2769 O.3    50 HOH   0.0000 
149 H1       0.3646    27.8461    34.2769 H      50 HOH   0.0000 
150 H2      -0.8856    28.4932    34.9240 H      50 HOH   0.0000 
151 O      -14.7619    -0.0619    25.9860 O.3    51 HOH   0.0000 
152 H1     -13.8019    -0.0619    25.9860 H      51 HOH   0.0000 
153 H2     -15.0522     0.5851    26.6331 H      51 HOH   0.0000 
154 O       -0.8052    26.8686    52.4737 O.3    52 HOH   0.0000 
155 H1       0.1548    26.8686    52.4737 H      52 HOH   0.0000 
156 H2      -1.0955    27.5156    53.1208 H      52 HOH   0.0000 
157 O       -3.4054    18.0351    51.2422 O.3    53 HOH  -0.8340 
158 H1      -3.8249    18.1381    50.3880 H      53 HOH   0.4170 
159 H2      -2.4989    17.8051    51.0381 H      53 HOH   0.4170 
160 O       14.8036    24.2605    49.4796 O.3    54 HOH   0.0000 
161 H1      15.7636    24.2605    49.4796 H      54 HOH   0.0000 
162 H2      14.5133    24.9075    50.1266 H      54 HOH   0.0000 
163 O       -9.6138    -1.8314    11.6840 O.3    55 HOH   0.0000 
164 H1      -8.6538    -1.8314    11.6840 H      55 HOH   0.0000 
165 H2      -9.9041    -1.1844    12.3310 H      55 HOH   0.0000 
166 O       -7.8054    10.3899    12.5354 O.3    56 HOH   0.0000 
167 H1      -6.8454    10.3899    12.5354 H      56 HOH   0.0000 
168 H2      -8.0957    11.0370    13.1825 H      56 HOH   0.0000 
169 O      -20.8899    13.0255    16.6022 O.3    57 HOH   0.0000 
170 H1     -19.9299    13.0255    16.6022 H      57 HOH   0.0000 
171 H2     -21.1802    13.6726    17.2493 H      57 HOH   0.0000 
172 O       10.8077    34.7072    49.0091 O.3    58 HOH   0.0000 
173 H1      11.7677    34.7072    49.0091 H      58 HOH   0.0000 
174 H2      10.5175    35.3543    49.6561 H      58 HOH   0.0000 
175 O       13.1076    28.4865    34.2950 O.3    59 HOH   0.0000 
176 H1      14.0676    28.4865    34.2950 H      59 HOH   0.0000 
177 H2      12.8173    29.1335    34.9421 H      59 HOH   0.0000 
178 O       18.7877    28.6036    41.2193 O.3    60 HOH   0.0000 
179 H1      19.7477    28.6036    41.2193 H      60 HOH   0.0000 
180 H2      18.4974    29.2506    41.8663 H      60 HOH   0.0000 
181 O        5.6086    18.9373    58.6341 O.3    61 HOH   0.0000 
182 H1       6.5686    18.9373    58.6341 H      61 HOH   0.0000 
183 H2       5.3183    19.5844    59.2812 H      61 HOH   0.0000 
184 O      -10.8843    23.7120    17.7571 O.3    62 HOH   0.0000 
185 H1      -9.9243    23.7120    17.7571 H      62 HOH   0.0000 
186 H2     -11.1745    24.3591    18.4041 H      62 HOH   0.0000 
187 O      -18.5136    13.4727    32.3494 O.3    63 HOH   0.0000 
188 H1     -17.5536    13.4727    32.3494 H      63 HOH   0.0000 
189 H2     -18.8039    14.1198    32.9964 H      63 HOH   0.0000 
190 O        5.2412    18.6802    22.6327 O.3    64 HOH   0.0000 
191 H1       6.2012    18.6802    22.6327 H      64 HOH   0.0000 
192 H2       4.9509    19.3273    23.2797 H      64 HOH   0.0000 
193 O       -6.7379     4.6018     8.5940 O.3    65 HOH   0.0000 
194 H1      -5.7779     4.6018     8.5940 H      65 HOH   0.0000 
195 H2      -7.0282     5.2488     9.2410 H      65 HOH   0.0000 
196 O      -10.9761     0.6491    36.4566 O.3    66 HOH   0.0000 
197 H1     -10.0161     0.6491    36.4566 H      66 HOH   0.0000 
198 H2     -11.2664     1.2962    37.1037 H      66 HOH   0.0000 
199 O      -17.4172     0.8693    26.7156 O.3    67 HOH   0.0000 
200 H1     -16.4572     0.8693    26.7156 H      67 HOH   0.0000 
201 H2     -17.7075     1.5163    27.3626 H      67 HOH   0.0000 
202 O      -13.7692    23.3412    14.7373 O.3    68 HOH   0.0000 
203 H1     -12.8092    23.3412    14.7373 H      68 HOH   0.0000 
204 H2     -14.0594    23.9882    15.3844 H      68 HOH   0.0000 
205 O      -17.1264    29.0788    25.3727 O.3    69 HOH   0.0000 
206 H1     -16.1664    29.0788    25.3727 H      69 HOH   0.0000 
207 H2     -17.4167    29.7259    26.0198 H      69 HOH   0.0000 
208 O      -22.3114    13.1427    18.7201 O.3    70 HOH   0.0000 
209 H1     -21.3514    13.1427    18.7201 H      70 HOH   0.0000 
210 H2     -22.6017    13.7898    19.3671 H      70 HOH   0.0000 
211 O       15.1846    25.6760    53.4639 O.3    71 HOH   0.0000 
212 H1      16.1446    25.6760    53.4639 H      71 HOH   0.0000 
213 H2      14.8943    26.3230    54.1110 H      71 HOH   0.0000 
214 O        1.0316    12.9544    23.7667 O.3    72 HOH   0.0000 
215 H1       1.9916    12.9544    23.7667 H      72 HOH   0.0000 
216 H2       0.7414    13.6015    24.4137 H      72 HOH   0.0000 
217 O      -19.8655     7.4540    48.0300 O.3    73 HOH   0.0000 
218 H1     -18.9055     7.4540    48.0300 H      73 HOH   0.0000 
219 H2     -20.1558     8.1010    48.6771 H      73 HOH   0.0000 
220 O       13.8661    32.2851    35.5886 O.3    74 HOH   0.0000 
221 H1      14.8261    32.2851    35.5886 H      74 HOH   0.0000 
222 H2      13.5758    32.9322    36.2357 H      74 HOH   0.0000 
223 O      -21.9367    24.5923    22.2718 O.3    75 HOH   0.0000 
224 H1     -20.9767    24.5923    22.2718 H      75 HOH   0.0000 
225 H2     -22.2270    25.2393    22.9189 H      75 HOH   0.0000 
226 O      -11.1115    -6.9235    17.4197 O.3    76 HOH   0.0000 
227 H1     -10.1515    -6.9235    17.4197 H      76 HOH   0.0000 
228 H2     -11.4018    -6.2765    18.0667 H      76 HOH   0.0000 
229 O        3.5334    19.1253    11.9714 O.3    77 HOH   0.0000 
230 H1       4.4934    19.1253    11.9714 H      77 HOH   0.0000 
231 H2       3.2431    19.7723    12.6185 H      77 HOH   0.0000 
232 O      -28.0555     3.8789    36.8750 O.3    78 HOH   0.0000 
233 H1     -27.0955     3.8789    36.8750 H      78 HOH   0.0000 
234 H2     -28.3458     4.5260    37.5220 H      78 HOH   0.0000 
235 O       -0.3523     3.6879    26.4758 O.3    79 HOH   0.0000 
236 H1       0.6077     3.6879    26.4758 H      79 HOH   0.0000 
237 H2      -0.6426     4.3349    27.1229 H      79 HOH   0.0000 
238 O      -14.5136    -2.3429    27.6093 O.3    80 HOH   0.0000 
239 H1     -13.5536    -2.3429    27.6093 H      80 HOH   0.0000 
240 H2     -14.8039    -1.6958    28.2563 H      80 HOH   0.0000 
241 O       -3.0164    16.5047    21.8722 O.3    81 HOH   0.0000 
242 H1      -2.0564    16.5047    21.8722 H      81 HOH   0.0000 
243 H2      -3.3066    17.1517    22.5192 H      81 HOH   0.0000 
244 O       11.1335    14.3752    38.3886 O.3    82 HOH   0.0000 
245 H1      12.0935    14.3752    38.3886 H      82 HOH   0.0000 
246 H2      10.8432    15.0222    39.0357 H      82 HOH   0.0000 
247 O       -1.5571    11.8641    23.6004 O.3    83 HOH   0.0000 
248 H1      -0.5971    11.8641    23.6004 H      83 HOH   0.0000 
249 H2      -1.8474    12.5111    24.2474 H      83 HOH   0.0000 
250 O      -24.8160    11.1134    44.0412 O.3    84 HOH   0.0000 
251 H1     -23.8560    11.1134    44.0412 H      84 HOH   0.0000 
252 H2     -25.1062    11.7605    44.6883 H      84 HOH   0.0000 
253 O       19.5901    35.2987    35.8815 O.3    85 HOH   0.0000 
254 H1      20.5501    35.2987    35.8815 H      85 HOH   0.0000 
255 H2      19.2999    35.9457    36.5285 H      85 HOH   0.0000 
256 O        3.4517    12.3423    10.0314 O.3    86 HOH   0.0000 
257 H1       4.4117    12.3423    10.0314 H      86 HOH   0.0000 
258 H2       3.1615    12.9893    10.6784 H      86 HOH   0.0000 
259 O       -5.6785     3.0653    32.7085 O.3    87 HOH   0.0000 
260 H1      -4.7185     3.0653    32.7085 H      87 HOH   0.0000 
261 H2      -5.9688     3.7123    33.3555 H      87 HOH   0.0000 
262 O       17.6139    41.6150    34.7636 O.3    88 HOH   0.0000 
263 H1      18.5739    41.6150    34.7636 H      88 HOH   0.0000 
264 H2      17.3237    42.2620    35.4107 H      88 HOH   0.0000 
265 O        1.0663    11.5801    48.1051 O.3    89 HOH  -0.8340 
266 H1       1.4483    10.9817    48.7472 H      89 HOH   0.4170 
267 H2       0.4623    11.0362    47.5996 H      89 HOH   0.4170 
268 O      -15.9643    28.6675    39.3401 O.3    90 HOH   0.0000 
269 H1     -15.0043    28.6675    39.3401 H      90 HOH   0.0000 
270 H2     -16.2546    29.3146    39.9872 H      90 HOH   0.0000 
271 O      -26.1220    14.6672    46.3903 O.3    91 HOH   0.0000 
272 H1     -25.1620    14.6672    46.3903 H      91 HOH   0.0000 
273 H2     -26.4123    15.3142    47.0373 H      91 HOH   0.0000 
274 O        2.9948    11.1084    25.3659 O.3    92 HOH   0.0000 
275 H1       3.9548    11.1084    25.3659 H      92 HOH   0.0000 
276 H2       2.7046    11.7555    26.0130 H      92 HOH   0.0000 
277 O       -7.0956     5.3911    44.5533 O.3    93 HOH   0.0000 
278 H1      -6.1356     5.3911    44.5533 H      93 HOH   0.0000 
279 H2      -7.3859     6.0381    45.2004 H      93 HOH   0.0000 
280 O      -11.8746    30.5083    29.2173 O.3    94 HOH   0.0000 
281 H1     -10.9146    30.5083    29.2173 H      94 HOH   0.0000 
282 H2     -12.1649    31.1554    29.8643 H      94 HOH   0.0000 
283 O      -16.0777    21.2901    14.2409 O.3    95 HOH   0.0000 
284 H1     -15.1177    21.2901    14.2409 H      95 HOH   0.0000 
285 H2     -16.3680    21.9371    14.8880 H      95 HOH   0.0000 
286 O      -16.7745    20.2921    49.4563 O.3    96 HOH   0.0000 
287 H1     -15.8145    20.2921    49.4563 H      96 HOH   0.0000 
288 H2     -17.0648    20.9391    50.1034 H      96 HOH   0.0000 
289 O      -13.3069    22.3322    12.3555 O.3    97 HOH   0.0000 
290 H1     -12.3469    22.3322    12.3555 H      97 HOH   0.0000 
291 H2     -13.5972    22.9793    13.0025 H      97 HOH   0.0000 
292 O       -4.4847     7.2102    34.2206 O.3    98 HOH   0.0000 
293 H1      -3.5247     7.2102    34.2206 H      98 HOH   0.0000 
294 H2      -4.7750     7.8572    34.8676 H      98 HOH   0.0000 
295 O      -19.3954    15.7114    33.2621 O.3    99 HOH   0.0000 
296 H1     -18.4354    15.7114    33.2621 H      99 HOH   0.0000 
297 H2     -19.6857    16.3585    33.9092 H      99 HOH   0.0000 
298 O       -3.2625    14.3057    23.1302 O.3   100 HOH   0.0000 
299 H1      -2.3025    14.3057    23.1302 H     100 HOH   0.0000 
300 H2      -3.5527    14.9527    23.7772 H     100 HOH   0.0000 
301 O      -31.0742    25.9102    47.8924 O.3   101 HOH   0.0000 
302 H1     -30.1142    25.9102    47.8924 H     101 HOH   0.0000 
303 H2     -31.3644    26.5572    48.5395 H     101 HOH   0.0000 
304 O       -4.1381    16.7579    12.6751 O.3   102 HOH   0.0000 
305 H1      -3.1781    16.7579    12.6751 H     102 HOH   0.0000 
306 H2      -4.4284    17.4050    13.3221 H     102 HOH   0.0000 
307 O        2.5063    34.8061    33.8598 O.3   103 HOH   0.0000 
308 H1       3.4663    34.8061    33.8598 H     103 HOH   0.0000 
309 H2       2.2160    35.4532    34.5069 H     103 HOH   0.0000 
310 O       -6.4056     5.2500    34.4538 O.3   104 HOH   0.0000 
311 H1      -5.4456     5.2500    34.4538 H     104 HOH   0.0000 
312 H2      -6.6959     5.8970    35.1009 H     104 HOH   0.0000 
313 O      -21.7860    14.7477    33.5066 O.3   105 HOH   0.0000 
314 H1     -20.8260    14.7477    33.5066 H     105 HOH   0.0000 
315 H2     -22.0763    15.3948    34.1537 H     105 HOH   0.0000 
316 O      -26.4891    15.3256    35.0552 O.3   106 HOH   0.0000 
317 H1     -25.5291    15.3256    35.0552 H     106 HOH   0.0000 
318 H2     -26.7794    15.9726    35.7023 H     106 HOH   0.0000 
319 O        7.7159    19.1587    24.1185 O.3   107 HOH   0.0000 
320 H1       8.6759    19.1587    24.1185 H     107 HOH   0.0000 
321 H2       7.4256    19.8058    24.7656 H     107 HOH   0.0000 
322 O      -21.1892    12.3644    32.8782 O.3   108 HOH   0.0000 
323 H1     -20.2292    12.3644    32.8782 H     108 HOH   0.0000 
324 H2     -21.4794    13.0114    33.5253 H     108 HOH   0.0000 
325 O       21.0945    46.4428    36.5573 O.3   109 HOH   0.0000 
326 H1      22.0545    46.4428    36.5573 H     109 HOH   0.0000 
327 H2      20.8042    47.0898    37.2043 H     109 HOH   0.0000 
328 O        6.4585    35.5862    32.3868 O.3   110 HOH   0.0000 
329 H1       7.4185    35.5862    32.3868 H     110 HOH   0.0000 
330 H2       6.1682    36.2333    33.0339 H     110 HOH   0.0000 
331 O       -3.4524     2.2101    29.4689 O.3   111 HOH   0.0000 
332 H1      -2.4924     2.2101    29.4689 H     111 HOH   0.0000 
333 H2      -3.7426     2.8572    30.1160 H     111 HOH   0.0000 
334 O       18.4037    23.5728    23.5765 O.3   112 HOH   0.0000 
335 H1      19.3637    23.5728    23.5765 H     112 HOH   0.0000 
336 H2      18.1135    24.2199    24.2236 H     112 HOH   0.0000 
337 O        5.6501    11.3621    24.3290 O.3   113 HOH   0.0000 
338 H1       6.6101    11.3621    24.3290 H     113 HOH   0.0000 
339 H2       5.3598    12.0091    24.9761 H     113 HOH   0.0000 
340 O      -25.1546    17.5979    23.4764 O.3   114 HOH   0.0000 
341 H1     -24.1946    17.5979    23.4764 H     114 HOH   0.0000 
342 H2     -25.4448    18.2450    24.1234 H     114 HOH   0.0000 
343 O      -22.4869    18.1585    46.5833 O.3   115 HOH   0.0000 
344 H1     -21.5269    18.1585    46.5833 H     115 HOH   0.0000 
345 H2     -22.7772    18.8056    47.2303 H     115 HOH   0.0000 
346 O      -19.9243     4.3456    38.8017 O.3   116 HOH   0.0000 
347 H1     -18.9643     4.3456    38.8017 H     116 HOH   0.0000 
348 H2     -20.2146     4.9927    39.4488 H     116 HOH   0.0000 
349 O       12.3517    39.3883    34.9883 O.3   117 HOH   0.0000 
350 H1      13.3117    39.3883    34.9883 H     117 HOH   0.0000 
351 H2      12.0614    40.0353    35.6354 H     117 HOH   0.0000 
352 O       17.6453    33.7050    35.0544 O.3   118 HOH   0.0000 
353 H1      18.6053    33.7050    35.0544 H     118 HOH   0.0000 
354 H2      17.3550    34.3520    35.7014 H     118 HOH   0.0000 
355 O        2.8039     5.2184    21.3150 O.3   119 HOH   0.0000 
356 H1       3.7639     5.2184    21.3150 H     119 HOH   0.0000 
357 H2       2.5136     5.8655    21.9621 H     119 HOH   0.0000 
358 O        2.7183    22.1507    54.1945 O.3   120 HOH   0.0000 
359 H1       3.6783    22.1507    54.1945 H     120 HOH   0.0000 
360 H2       2.4280    22.7977    54.8416 H     120 HOH   0.0000 
361 O       -3.4873    32.2824    38.0261 O.3   121 HOH   0.0000 
362 H1      -2.5273    32.2824    38.0261 H     121 HOH   0.0000 
363 H2      -3.7776    32.9295    38.6731 H     121 HOH   0.0000 
364 O       17.8196    44.2524    35.4055 O.3   122 HOH   0.0000 
365 H1      18.7796    44.2524    35.4055 H     122 HOH   0.0000 
366 H2      17.5293    44.8995    36.0526 H     122 HOH   0.0000 
367 O      -29.8401    11.5220    29.5312 O.3   123 HOH   0.0000 
368 H1     -28.8801    11.5220    29.5312 H     123 HOH   0.0000 
369 H2     -30.1304    12.1690    30.1783 H     123 HOH   0.0000 
370 O       -1.0294    10.0396    46.3615 O.3   124 HOH  -0.8340 
371 H1      -0.6474     9.4412    47.0035 H     124 HOH   0.4170 
372 H2      -1.6333     9.4957    45.8560 H     124 HOH   0.4170 
373 O       13.5159    27.7846    31.8474 O.3   125 HOH   0.0000 
374 H1      14.4759    27.7846    31.8474 H     125 HOH   0.0000 
375 H2      13.2257    28.4316    32.4945 H     125 HOH   0.0000 
376 O       -8.9612    11.7192    48.1728 O.3   126 HOH  -0.8340 
377 H1      -8.7541    10.7877    48.0973 H     126 HOH   0.4170 
378 H2      -8.5458    12.1200    47.4093 H     126 HOH   0.4170 
379 O        7.6067    11.5879    13.7997 O.3   127 HOH   0.0000 
380 H1       8.5667    11.5879    13.7997 H     127 HOH   0.0000 
381 H2       7.3164    12.2350    14.4467 H     127 HOH   0.0000 
382 O       -1.1638    29.7860    46.1403 O.3   128 HOH   0.0000 
383 H1      -0.2038    29.7860    46.1403 H     128 HOH   0.0000 
384 H2      -1.4540    30.4331    46.7873 H     128 HOH   0.0000 
385 O      -19.4282    10.4089    11.8692 O.3   129 HOH   0.0000 
386 H1     -18.4682    10.4089    11.8692 H     129 HOH   0.0000 
387 H2     -19.7185    11.0559    12.5163 H     129 HOH   0.0000 
388 O        3.3586    19.4043    57.4753 O.3   130 HOH   0.0000 
389 H1       4.3186    19.4043    57.4753 H     130 HOH   0.0000 
390 H2       3.0683    20.0513    58.1223 H     130 HOH   0.0000 
391 O      -26.1797    23.4606    43.6384 O.3   131 HOH   0.0000 
392 H1     -25.2197    23.4606    43.6384 H     131 HOH   0.0000 
393 H2     -26.4699    24.1077    44.2854 H     131 HOH   0.0000 
394 O       -2.5796    35.1805    29.3354 O.3   132 HOH   0.0000 
395 H1      -1.6196    35.1805    29.3354 H     132 HOH   0.0000 
396 H2      -2.8699    35.8275    29.9825 H     132 HOH   0.0000 
397 O       17.0866    30.5961    42.0661 O.3   133 HOH   0.0000 
398 H1      18.0466    30.5961    42.0661 H     133 HOH   0.0000 
399 H2      16.7963    31.2432    42.7132 H     133 HOH   0.0000 
400 O        2.9400    15.4610    30.1725 O.3   134 HOH   0.0000 
401 H1       3.9000    15.4610    30.1725 H     134 HOH   0.0000 
402 H2       2.6497    16.1081    30.8195 H     134 HOH   0.0000 
403 O        9.0280    19.2964    28.7202 O.3   135 HOH   0.0000 
404 H1       9.9880    19.2964    28.7202 H     135 HOH   0.0000 
405 H2       8.7377    19.9435    29.3673 H     135 HOH   0.0000 
406 O       12.8202    30.0144    31.1289 O.3   136 HOH   0.0000 
407 H1      13.7802    30.0144    31.1289 H     136 HOH   0.0000 
408 H2      12.5300    30.6615    31.7760 H     136 HOH   0.0000 
409 O      -18.1430    14.9101    51.7254 O.3   137 HOH   0.0000 
410 H1     -17.1830    14.9101    51.7254 H     137 HOH   0.0000 
411 H2     -18.4333    15.5572    52.3724 H     137 HOH   0.0000 
412 O       -5.4863    12.6816    21.9743 O.3   138 HOH   0.0000 
413 H1      -4.5263    12.6816    21.9743 H     138 HOH   0.0000 
414 H2      -5.7766    13.3286    22.6213 H     138 HOH   0.0000 
415 O       -0.4432    16.6539    51.3353 O.3   139 HOH  -0.8340 
416 H1       0.1251    17.4241    51.3224 H     139 HOH   0.4170 
417 H2      -0.3805    16.3244    52.2318 H     139 HOH   0.4170 
418 O      -19.7273     3.2352    17.6665 O.3   140 HOH   0.0000 
419 H1     -18.7673     3.2352    17.6665 H     140 HOH   0.0000 
420 H2     -20.0176     3.8822    18.3136 H     140 HOH   0.0000 
421 O        1.5856    26.4132    55.1748 O.3   141 HOH   0.0000 
422 H1       2.5456    26.4132    55.1748 H     141 HOH   0.0000 
423 H2       1.2953    27.0603    55.8219 H     141 HOH   0.0000 
424 O      -10.4890    23.2594    12.5879 O.3   142 HOH   0.0000 
425 H1      -9.5290    23.2594    12.5879 H     142 HOH   0.0000 
426 H2     -10.7792    23.9065    13.2349 H     142 HOH   0.0000 
427 O        6.2751    13.5186    22.4116 O.3   143 HOH   0.0000 
428 H1       7.2351    13.5186    22.4116 H     143 HOH   0.0000 
429 H2       5.9849    14.1656    23.0587 H     143 HOH   0.0000 
430 O       -7.2303    29.4438    42.8503 O.3   144 HOH   0.0000 
431 H1      -6.2703    29.4438    42.8503 H     144 HOH   0.0000 
432 H2      -7.5205    30.0909    43.4974 H     144 HOH   0.0000 
433 O      -23.8202    12.4306    36.4135 O.3   145 HOH   0.0000 
434 H1     -22.8602    12.4306    36.4135 H     145 HOH   0.0000 
435 H2     -24.1105    13.0776    37.0606 H     145 HOH   0.0000 
436 O      -13.7179    28.5050    35.4666 O.3   146 HOH   0.0000 
437 H1     -12.7579    28.5050    35.4666 H     146 HOH   0.0000 
438 H2     -14.0082    29.1520    36.1137 H     146 HOH   0.0000 
439 O        1.9996    33.1888    23.8642 O.3   147 HOH   0.0000 
440 H1       2.9596    33.1888    23.8642 H     147 HOH   0.0000 
441 H2       1.7093    33.8358    24.5113 H     147 HOH   0.0000 
442 O      -15.6744    27.2891    17.3464 O.3   148 HOH   0.0000 
443 H1     -14.7144    27.2891    17.3464 H     148 HOH   0.0000 
444 H2     -15.9647    27.9361    17.9934 H     148 HOH   0.0000 
445 O      -17.2083    23.9816    51.9344 O.3   149 HOH   0.0000 
446 H1     -16.2483    23.9816    51.9344 H     149 HOH   0.0000 
447 H2     -17.4985    24.6287    52.5815 H     149 HOH   0.0000 
448 O      -18.7321    -2.7542    14.0111 O.3   150 HOH   0.0000 
449 H1     -17.7721    -2.7542    14.0111 H     150 HOH   0.0000 
450 H2     -19.0224    -2.1072    14.6581 H     150 HOH   0.0000 
451 O        6.6410     7.4372    17.3744 O.3   151 HOH   0.0000 
452 H1       7.6010     7.4372    17.3744 H     151 HOH   0.0000 
453 H2       6.3507     8.0842    18.0215 H     151 HOH   0.0000 
454 O      -12.0808    22.0523    53.3026 O.3   152 HOH   0.0000 
455 H1     -11.1208    22.0523    53.3026 H     152 HOH   0.0000 
456 H2     -12.3711    22.6993    53.9496 H     152 HOH   0.0000 
457 O      -21.0391     2.6022    14.4862 O.3   153 HOH   0.0000 
458 H1     -20.0791     2.6022    14.4862 H     153 HOH   0.0000 
459 H2     -21.3294     3.2493    15.1332 H     153 HOH   0.0000 
460 O      -24.0044     6.6335    47.6545 O.3   154 HOH   0.0000 
461 H1     -23.0444     6.6335    47.6545 H     154 HOH   0.0000 
462 H2     -24.2947     7.2805    48.3016 H     154 HOH   0.0000 
463 O        1.0957    18.2267     9.1631 O.3   155 HOH   0.0000 
464 H1       2.0557    18.2267     9.1631 H     155 HOH   0.0000 
465 H2       0.8054    18.8737     9.8101 H     155 HOH   0.0000 
466 O      -11.7825    28.6893    18.9683 O.3   156 HOH   0.0000 
467 H1     -10.8225    28.6893    18.9683 H     156 HOH   0.0000 
468 H2     -12.0727    29.3363    19.6154 H     156 HOH   0.0000 
469 O       18.2237    37.5442    35.0009 O.3   157 HOH   0.0000 
470 H1      19.1837    37.5442    35.0009 H     157 HOH   0.0000 
471 H2      17.9335    38.1912    35.6480 H     157 HOH   0.0000 
472 O       -4.3701    25.6705    15.7675 O.3   158 HOH   0.0000 
473 H1      -3.4101    25.6705    15.7675 H     158 HOH   0.0000 
474 H2      -4.6603    26.3176    16.4145 H     158 HOH   0.0000 
475 O       -7.3688    -5.3925    29.9523 O.3   159 HOH   0.0000 
476 H1      -6.4088    -5.3925    29.9523 H     159 HOH   0.0000 
477 H2      -7.6591    -4.7455    30.5993 H     159 HOH   0.0000 
478 O      -23.9420    23.8603    42.4929 O.3   160 HOH   0.0000 
479 H1     -22.9820    23.8603    42.4929 H     160 HOH   0.0000 
480 H2     -24.2323    24.5074    43.1399 H     160 HOH   0.0000 
481 O        3.6993    23.8639    15.8442 O.3   161 HOH   0.0000 
482 H1       4.6593    23.8639    15.8442 H     161 HOH   0.0000 
483 H2       3.4090    24.5109    16.4912 H     161 HOH   0.0000 
484 O        6.7406    29.7935    58.2302 O.3   162 HOH   0.0000 
485 H1       7.7006    29.7935    58.2302 H     162 HOH   0.0000 
486 H2       6.4503    30.4406    58.8772 H     162 HOH   0.0000 
487 O      -18.4742    -2.3176    24.2800 O.3   163 HOH   0.0000 
488 H1     -17.5142    -2.3176    24.2800 H     163 HOH   0.0000 
489 H2     -18.7645    -1.6705    24.9271 H     163 HOH   0.0000 
490 O      -28.0714    17.3607    36.7027 O.3   164 HOH   0.0000 
491 H1     -27.1114    17.3607    36.7027 H     164 HOH   0.0000 
492 H2     -28.3616    18.0077    37.3498 H     164 HOH   0.0000 
493 O      -24.8001    30.5519    30.1013 O.3   165 HOH   0.0000 
494 H1     -23.8401    30.5519    30.1013 H     165 HOH   0.0000 
495 H2     -25.0904    31.1990    30.7484 H     165 HOH   0.0000 
496 O      -17.7657     7.8065    14.7898 O.3   166 HOH   0.0000 
497 H1     -16.8057     7.8065    14.7898 H     166 HOH   0.0000 
498 H2     -18.0560     8.4536    15.4368 H     166 HOH   0.0000 
499 O       -5.8741     9.5174    33.8264 O.3   167 HOH   0.0000 
500 H1      -4.9141     9.5174    33.8264 H     167 HOH   0.0000 
501 H2      -6.1643    10.1644    34.4735 H     167 HOH   0.0000 
502 O        1.1295    11.8197    35.0626 O.3   168 HOH   0.0000 
503 H1       2.0895    11.8197    35.0626 H     168 HOH   0.0000 
504 H2       0.8392    12.4667    35.7096 H     168 HOH   0.0000 
505 O        8.9833    25.6256    26.6522 O.3   169 HOH   0.0000 
506 H1       9.9433    25.6256    26.6522 H     169 HOH   0.0000 
507 H2       8.6930    26.2727    27.2993 H     169 HOH   0.0000 
508 O        3.9709    17.2352    32.5491 O.3   170 HOH  -0.8340 
509 H1       4.5381    17.9927    32.6929 H     170 HOH   0.4170 
510 H2       3.3793    17.5081    31.8478 H     170 HOH   0.4170 
511 O      -23.3648     3.2164    24.5548 O.3   171 HOH   0.0000 
512 H1     -22.4048     3.2164    24.5548 H     171 HOH   0.0000 
513 H2     -23.6551     3.8635    25.2018 H     171 HOH   0.0000 
514 O       -2.9596    15.4255    10.4125 O.3   172 HOH   0.0000 
515 H1      -1.9996    15.4255    10.4125 H     172 HOH   0.0000 
516 H2      -3.2499    16.0726    11.0595 H     172 HOH   0.0000 
517 O        0.0734    33.1014    22.0958 O.3   173 HOH   0.0000 
518 H1       1.0334    33.1014    22.0958 H     173 HOH   0.0000 
519 H2      -0.2169    33.7485    22.7428 H     173 HOH   0.0000 
520 O      -11.0872     4.3261    47.1964 O.3   174 HOH   0.0000 
521 H1     -10.1272     4.3261    47.1964 H     174 HOH   0.0000 
522 H2     -11.3775     4.9732    47.8434 H     174 HOH   0.0000 
523 O        2.2748    20.8268    59.3936 O.3   175 HOH   0.0000 
524 H1       3.2348    20.8268    59.3936 H     175 HOH   0.0000 
525 H2       1.9846    21.4739    60.0407 H     175 HOH   0.0000 
526 O      -11.2351    29.2104    21.9966 O.3   176 HOH   0.0000 
527 H1     -10.2751    29.2104    21.9966 H     176 HOH   0.0000 
528 H2     -11.5254    29.8574    22.6437 H     176 HOH   0.0000 
529 O      -23.2704     4.3244    38.9873 O.3   177 HOH   0.0000 
530 H1     -22.3104     4.3244    38.9873 H     177 HOH   0.0000 
531 H2     -23.5607     4.9715    39.6343 H     177 HOH   0.0000 
532 O       -5.6276    33.3734    36.7654 O.3   178 HOH   0.0000 
533 H1      -4.6676    33.3734    36.7654 H     178 HOH   0.0000 
534 H2      -5.9179    34.0205    37.4125 H     178 HOH   0.0000 
535 O      -20.7853     6.1798    14.6399 O.3   179 HOH   0.0000 
536 H1     -19.8253     6.1798    14.6399 H     179 HOH   0.0000 
537 H2     -21.0755     6.8268    15.2870 H     179 HOH   0.0000 
538 O        2.0035     5.0835    18.1170 O.3   180 HOH   0.0000 
539 H1       2.9635     5.0835    18.1170 H     180 HOH   0.0000 
540 H2       1.7132     5.7305    18.7641 H     180 HOH   0.0000 
541 O      -27.4466    13.0064    35.7357 O.3   181 HOH   0.0000 
542 H1     -26.4866    13.0064    35.7357 H     181 HOH   0.0000 
543 H2     -27.7369    13.6534    36.3828 H     181 HOH   0.0000 
544 O       11.0502    23.3357    20.4990 O.3   182 HOH   0.0000 
545 H1      12.0102    23.3357    20.4990 H     182 HOH   0.0000 
546 H2      10.7599    23.9827    21.1461 H     182 HOH   0.0000 
547 O      -35.1790    19.8092    41.0376 O.3   183 HOH   0.0000 
548 H1     -34.2190    19.8092    41.0376 H     183 HOH   0.0000 
549 H2     -35.4693    20.4562    41.6847 H     183 HOH   0.0000 
550 O      -26.7217    15.6286    41.5291 O.3   184 HOH   0.0000 
551 H1     -25.7617    15.6286    41.5291 H     184 HOH   0.0000 
552 H2     -27.0119    16.2757    42.1761 H     184 HOH   0.0000 
553 O      -24.4654    19.4461    45.3359 O.3   185 HOH   0.0000 
554 H1     -23.5054    19.4461    45.3359 H     185 HOH   0.0000 
555 H2     -24.7557    20.0932    45.9830 H     185 HOH   0.0000 
556 O       13.1572    25.1041    55.5724 O.3   186 HOH   0.0000 
557 H1      14.1172    25.1041    55.5724 H     186 HOH   0.0000 
558 H2      12.8669    25.7511    56.2195 H     186 HOH   0.0000 
559 O       11.5198    37.4080    33.3555 O.3   187 HOH   0.0000 
560 H1      12.4798    37.4080    33.3555 H     187 HOH   0.0000 
561 H2      11.2295    38.0550    34.0026 H     187 HOH   0.0000 
562 O        7.1291     8.8766    38.1828 O.3   188 HOH   0.0000 
563 H1       8.0891     8.8766    38.1828 H     188 HOH   0.0000 
564 H2       6.8388     9.5237    38.8298 H     188 HOH   0.0000 
565 O        6.0148    27.0850    23.6998 O.3   189 HOH   0.0000 
566 H1       6.9748    27.0850    23.6998 H     189 HOH   0.0000 
567 H2       5.7245    27.7321    24.3468 H     189 HOH   0.0000 
568 O       -1.6791    18.1090     8.5322 O.3   190 HOH   0.0000 
569 H1      -0.7191    18.1090     8.5322 H     190 HOH   0.0000 
570 H2      -1.9694    18.7560     9.1792 H     190 HOH   0.0000 
571 O      -34.6051    28.2505    54.9518 O.3   191 HOH   0.0000 
572 H1     -33.6451    28.2505    54.9518 H     191 HOH   0.0000 
573 H2     -34.8954    28.8976    55.5988 H     191 HOH   0.0000 
574 O      -11.2851    26.8438    46.3247 O.3   192 HOH   0.0000 
575 H1     -10.3251    26.8438    46.3247 H     192 HOH   0.0000 
576 H2     -11.5753    27.4909    46.9717 H     192 HOH   0.0000 
577 O       -2.7819     6.1971    36.3649 O.3   193 HOH   0.0000 
578 H1      -1.8219     6.1971    36.3649 H     193 HOH   0.0000 
579 H2      -3.0722     6.8442    37.0119 H     193 HOH   0.0000 
580 O        4.7270    36.7784    33.9881 O.3   194 HOH   0.0000 
581 H1       5.6870    36.7784    33.9881 H     194 HOH   0.0000 
582 H2       4.4368    37.4254    34.6351 H     194 HOH   0.0000 
583 O       -9.9522    32.4833    27.1331 O.3   195 HOH   0.0000 
584 H1      -8.9922    32.4833    27.1331 H     195 HOH   0.0000 
585 H2     -10.2425    33.1303    27.7802 H     195 HOH   0.0000 
586 O        0.9592     5.0038    28.3690 O.3   196 HOH   0.0000 
587 H1       1.9192     5.0038    28.3690 H     196 HOH   0.0000 
588 H2       0.6689     5.6509    29.0160 H     196 HOH   0.0000 
589 O       -0.5295    -4.9368    24.5083 O.3   197 HOH   0.0000 
590 H1       0.4305    -4.9368    24.5083 H     197 HOH   0.0000 
591 H2      -0.8198    -4.2897    25.1554 H     197 HOH   0.0000 
592 O      -23.8405     6.2579    45.0272 O.3   198 HOH   0.0000 
593 H1     -22.8805     6.2579    45.0272 H     198 HOH   0.0000 
594 H2     -24.1308     6.9050    45.6743 H     198 HOH   0.0000 
595 O       18.5975    17.1605    28.1359 O.3   199 HOH   0.0000 
596 H1      19.5575    17.1605    28.1359 H     199 HOH   0.0000 
597 H2      18.3072    17.8075    28.7829 H     199 HOH   0.0000 
598 O      -12.4253    -5.6747    31.9053 O.3   200 HOH   0.0000 
599 H1     -11.4653    -5.6747    31.9053 H     200 HOH   0.0000 
600 H2     -12.7155    -5.0277    32.5524 H     200 HOH   0.0000 
601 O        7.1724    25.9353    20.2502 O.3   201 HOH   0.0000 
602 H1       8.1324    25.9353    20.2502 H     201 HOH   0.0000 
603 H2       6.8821    26.5824    20.8972 H     201 HOH   0.0000 
604 O        2.9694    11.0501    28.1499 O.3   202 HOH   0.0000 
605 H1       3.9294    11.0501    28.1499 H     202 HOH   0.0000 
606 H2       2.6791    11.6971    28.7969 H     202 HOH   0.0000 
607 O      -32.0507    18.0268    41.1192 O.3   203 HOH   0.0000 
608 H1     -31.0907    18.0268    41.1192 H     203 HOH   0.0000 
609 H2     -32.3409    18.6739    41.7663 H     203 HOH   0.0000 
610 O      -28.7398    14.7242    28.6545 O.3   204 HOH   0.0000 
611 H1     -27.7798    14.7242    28.6545 H     204 HOH   0.0000 
612 H2     -29.0301    15.3713    29.3015 H     204 HOH   0.0000 
613 O        1.5808    18.8774    55.4447 O.3   205 HOH   0.0000 
614 H1       2.5408    18.8774    55.4447 H     205 HOH   0.0000 
615 H2       1.2905    19.5244    56.0917 H     205 HOH   0.0000 
616 O      -22.1799    10.7587    34.7587 O.3   206 HOH   0.0000 
617 H1     -21.2199    10.7587    34.7587 H     206 HOH   0.0000 
618 H2     -22.4702    11.4057    35.4057 H     206 HOH   0.0000 
619 O       18.5931    43.0794    32.8506 O.3   207 HOH   0.0000 
620 H1      19.5531    43.0794    32.8506 H     207 HOH   0.0000 
621 H2      18.3028    43.7265    33.4977 H     207 HOH   0.0000 
622 O        0.8708    11.3260    31.9410 O.3   208 HOH   0.0000 
623 H1       1.8308    11.3260    31.9410 H     208 HOH   0.0000 
624 H2       0.5805    11.9730    32.5880 H     208 HOH   0.0000 
625 O      -32.8304    24.1824    35.8376 O.3   209 HOH   0.0000 
626 H1     -31.8704    24.1824    35.8376 H     209 HOH   0.0000 
627 H2     -33.1207    24.8295    36.4846 H     209 HOH   0.0000 
628 O       -5.9365     4.9151    42.1161 O.3   210 HOH   0.0000 
629 H1      -4.9765     4.9151    42.1161 H     210 HOH   0.0000 
630 H2      -6.2268     5.5621    42.7631 H     210 HOH   0.0000 
631 O        3.8889    34.2963    56.8880 O.3   211 HOH   0.0000 
632 H1       4.8489    34.2963    56.8880 H     211 HOH   0.0000 
633 H2       3.5986    34.9433    57.5351 H     211 HOH   0.0000 
@<TRIPOS>BOND
  1   1   2  1   
  2   1   3  1   
  3   4   5  1   
  4   4   6  1   
  5   7   8  1   
  6   7   9  1   
  7  10  11  1   
  8  10  12  1   
  9  13  14  1   
 10  13  15  1   
 11  16  17  1   
 12  16  18  1   
 13  19  20  1   
 14  19  21  1   
 15  22  23  1   
 16  22  24  1   
 17  25  26  1   
 18  25  27  1   
 19  28  29  1   
 20  28  30  1   
 21  31  32  1   
 22  31  33  1   
 23  34  35  1   
 24  34  36  1   
 25  37  38  1   
 26  37  39  1   
 27  40  41  1   
 28  40  42  1   
 29  43  44  1   
 30  43  45  1   
 31  46  47  1   
 32  46  48  1   
 33  49  50  1   
 34  49  51  1   
 35  52  53  1   
 36  52  54  1   
 37  55  56  1   
 38  55  57  1   
 39  58  59  1   
 40  58  60  1   
 41  61  62  1   
 42  61  63  1   
 43  64  65  1   
 44  64  66  1   
 45  67  68  1   
 46  67  69  1   
 47  70  71  1   
 48  70  72  1   
 49  73  74  1   
 50  73  75  1   
 51  76  77  1   
 52  76  78  1   
 53  79  80  1   
 54  79  81  1   
 55  82  83  1   
 56  82  84  1   
 57  85  86  1   
 58  85  87  1   
 59  88  89  1   
 60  88  90  1   
 61  91  92  1   
 62  91  93  1   
 63  94  95  1   
 64  94  96  1   
 65  97  98  1   
 66  97  99  1   
 67 100 101  1   
 68 100 102  1   
 69 103 104  1   
 70 103 105  1   
 71 106 107  1   
 72 106 108  1   
 73 109 110  1   
 74 109 111  1   
 75 112 113  1   
 76 112 114  1   
 77 115 116  1   
 78 115 117  1   
 79 118 119  1   
 80 118 120  1   
 81 121 122  1   
 82 121 123  1   
 83 124 125  1   
 84 124 126  1   
 85 127 128  1   
 86 127 129  1   
 87 130 131  1   
 88 130 132  1   
 89 133 134  1   
 90 133 135  1   
 91 136 137  1   
 92 136 138  1   
 93 139 140  1   
 94 139 141  1   
 95 142 143  1   
 96 142 144  1   
 97 145 146  1   
 98 145 147  1   
 99 148 149  1   
100 148 150  1   
101 151 152  1   
102 151 153  1   
103 154 155  1   
104 154 156  1   
105 157 158  1   
106 157 159  1   
107 160 161  1   
108 160 162  1   
109 163 164  1   
110 163 165  1   
111 166 167  1   
112 166 168  1   
113 169 170  1   
114 169 171  1   
115 172 173  1   
116 172 174  1   
117 175 176  1   
118 175 177  1   
119 178 179  1   
120 178 180  1   
121 181 182  1   
122 181 183  1   
123 184 185  1   
124 184 186  1   
125 187 188  1   
126 187 189  1   
127 190 191  1   
128 190 192  1   
129 193 194  1   
130 193 195  1   
131 196 197  1   
132 196 198  1   
133 199 200  1   
134 199 201  1   
135 202 203  1   
136 202 204  1   
137 205 206  1   
138 205 207  1   
139 208 209  1   
140 208 210  1   
141 211 212  1   
142 211 213  1   
143 214 215  1   
144 214 216  1   
145 217 218  1   
146 217 219  1   
147 220 221  1   
148 220 222  1   
149 223 224  1   
150 223 225  1   
151 226 227  1   
152 226 228  1   
153 229 230  1   
154 229 231  1   
155 232 233  1   
156 232 234  1   
157 235 236  1   
158 235 237  1   
159 238 239  1   
160 238 240  1   
161 241 242  1   
162 241 243  1   
163 244 245  1   
164 244 246  1   
165 247 248  1   
166 247 249  1   
167 250 251  1   
168 250 252  1   
169 253 254  1   
170 253 255  1   
171 256 257  1   
172 256 258  1   
173 259 260  1   
174 259 261  1   
175 262 263  1   
176 262 264  1   
177 265 266  1   
178 265 267  1   
179 268 269  1   
180 268 270  1   
181 271 272  1   
182 271 273  1   
183 274 275  1   
184 274 276  1   
185 277 278  1   
186 277 279  1   
187 280 281  1   
188 280 282  1   
189 283 284  1   
190 283 285  1   
191 286 287  1   
192 286 288  1   
193 289 290  1   
194 289 291  1   
195 292 293  1   
196 292 294  1   
197 295 296  1   
198 295 297  1   
199 298 299  1   
200 298 300  1   
201 301 302  1   
202 301 303  1   
203 304 305  1   
204 304 306  1   
205 307 308  1   
206 307 309  1   
207 310 311  1   
208 310 312  1   
209 313 314  1   
210 313 315  1   
211 316 317  1   
212 316 318  1   
213 319 320  1   
214 319 321  1   
215 322 323  1   
216 322 324  1   
217 325 326  1   
218 325 327  1   
219 328 329  1   
220 328 330  1   
221 331 332  1   
222 331 333  1   
223 334 335  1   
224 334 336  1   
225 337 338  1   
226 337 339  1   
227 340 341  1   
228 340 342  1   
229 343 344  1   
230 343 345  1   
231 346 347  1   
232 346 348  1   
233 349 350  1   
234 349 351  1   
235 352 353  1   
236 352 354  1   
237 355 356  1   
238 355 357  1   
239 358 359  1   
240 358 360  1   
241 361 362  1   
242 361 363  1   
243 364 365  1   
244 364 366  1   
245 367 368  1   
246 367 369  1   
247 370 371  1   
248 370 372  1   
249 373 374  1   
250 373 375  1   
251 376 377  1   
252 376 378  1   
253 379 380  1   
254 379 381  1   
255 382 383  1   
256 382 384  1   
257 385 386  1   
258 385 387  1   
259 388 389  1   
260 388 390  1   
261 391 392  1   
262 391 393  1   
263 394 395  1   
264 394 396  1   
265 397 398  1   
266 397 399  1   
267 400 401  1   
268 400 402  1   
269 403 404  1   
270 403 405  1   
271 406 407  1   
272 406 408  1   
273 409 410  1   
274 409 411  1   
275 412 413  1   
276 412 414  1   
277 415 416  1   
278 415 417  1   
279 418 419  1   
280 418 420  1   
281 421 422  1   
282 421 423  1   
283 424 425  1   
284 424 426  1   
285 427 428  1   
286 427 429  1   
287 430 431  1   
288 430 432  1   
289 433 434  1   
290 433 435  1   
291 436 437  1   
292 436 438  1   
293 439 440  1   
294 439 441  1   
295 442 443  1   
296 442 444  1   
297 445 446  1   
298 445 447  1   
299 448 449  1   
300 448 450  1   
301 451 452  1   
302 451 453  1   
303 454 455  1   
304 454 456  1   
305 457 458  1   
306 457 459  1   
307 460 461  1   
308 460 462  1   
309 463 464  1   
310 463 465  1   
311 466 467  1   
312 466 468  1   
313 469 470  1   
314 469 471  1   
315 472 473  1   
316 472 474  1   
317 475 476  1   
318 475 477  1   
319 478 479  1   
320 478 480  1   
321 481 482  1   
322 481 483  1   
323 484 485  1   
324 484 486  1   
325 487 488  1   
326 487 489  1   
327 490 491  1   
328 490 492  1   
329 493 494  1   
330 493 495  1   
331 496 497  1   
332 496 498  1   
333 499 500  1   
334 499 501  1   
335 502 503  1   
336 502 504  1   
337 505 506  1   
338 505 507  1   
339 508 509  1   
340 508 510  1   
341 511 512  1   
342 511 513  1   
343 514 515  1   
344 514 516  1   
345 517 518  1   
346 517 519  1   
347 520 521  1   
348 520 522  1   
349 523 524  1   
350 523 525  1   
351 526 527  1   
352 526 528  1   
353 529 530  1   
354 529 531  1   
355 532 533  1   
356 532 534  1   
357 535 536  1   
358 535 537  1   
359 538 539  1   
360 538 540  1   
361 541 542  1   
362 541 543  1   
363 544 545  1   
364 544 546  1   
365 547 548  1   
366 547 549  1   
367 550 551  1   
368 550 552  1   
369 553 554  1   
370 553 555  1   
371 556 557  1   
372 556 558  1   
373 559 560  1   
374 559 561  1   
375 562 563  1   
376 562 564  1   
377 565 566  1   
378 565 567  1   
379 568 569  1   
380 568 570  1   
381 571 572  1   
382 571 573  1   
383 574 575  1   
384 574 576  1   
385 577 578  1   
386 577 579  1   
387 580 581  1   
388 580 582  1   
389 583 584  1   
390 583 585  1   
391 586 587  1   
392 586 588  1   
393 589 590  1   
394 589 591  1   
395 592 593  1   
396 592 594  1   
397 595 596  1   
398 595 597  1   
399 598 599  1   
400 598 600  1   
401 601 602  1   
402 601 603  1   
403 604 605  1   
404 604 606  1   
405 607 608  1   
406 607 609  1   
407 610 611  1   
408 610 612  1   
409 613 614  1   
410 613 615  1   
411 616 617  1   
412 616 618  1   
413 619 620  1   
414 619 621  1   
415 622 623  1   
416 622 624  1   
417 625 626  1   
418 625 627  1   
419 628 629  1   
420 628 630  1   
421 631 632  1   
422 631 633  1   
@<TRIPOS>SUBSTRUCTURE
  1 HOH   1 GROUP 4 A **** 0
  2 HOH   4 GROUP 4 A **** 0
  3 HOH   7 GROUP 4 A **** 0
  4 HOH  10 GROUP 4 A **** 0
  5 HOH  13 GROUP 4 A **** 0
  6 HOH  16 GROUP 4 A **** 0
  7 HOH  19 GROUP 4 A **** 0
  8 HOH  22 GROUP 4 A **** 0
  9 HOH  25 GROUP 4 A **** 0
 10 HOH  28 GROUP 4 A **** 0
 11 HOH  31 GROUP 4 A **** 0
 12 HOH  34 GROUP 4 A **** 0
 13 HOH  37 GROUP 4 A **** 0
 14 HOH  40 GROUP 4 A **** 0
 15 HOH  43 GROUP 4 A **** 0
 16 HOH  46 GROUP 4 A **** 0
 17 HOH  49 GROUP 4 A **** 0
 18 HOH  52 GROUP 4 A **** 0
 19 HOH  55 GROUP 4 A **** 0
 20 HOH  58 GROUP 4 A **** 0
 21 HOH  61 GROUP 4 A **** 0
 22 HOH  64 GROUP 4 A **** 0
 23 HOH  67 GROUP 4 A **** 0
 24 HOH  70 GROUP 4 A **** 0
 25 HOH  73 GROUP 4 A **** 0
 26 HOH  76 GROUP 4 A **** 0
 27 HOH  79 GROUP 4 A **** 0
 28 HOH  82 GROUP 4 A **** 0
 29 HOH  85 GROUP 4 A **** 0
 30 HOH  88 GROUP 4 A **** 0
 31 HOH  91 GROUP 4 A **** 0
 32 HOH  94 GROUP 4 A **** 0
 33 HOH  97 GROUP 4 A **** 0
 34 HOH 100 GROUP 4 A **** 0
 35 HOH 103 GROUP 4 A **** 0
 36 HOH 106 GROUP 4 A **** 0
 37 HOH 109 GROUP 4 A **** 0
 38 HOH 112 GROUP 4 A **** 0
 39 HOH 115 GROUP 4 A **** 0
 40 HOH 118 GROUP 4 A **** 0
 41 HOH 121 GROUP 4 A **** 0
 42 HOH 124 GROUP 4 A **** 0
 43 HOH 127 GROUP 4 A **** 0
 44 HOH 130 GROUP 4 A **** 0
 45 HOH 133 GROUP 4 A **** 0
 46 HOH 136 GROUP 4 A **** 0
 47 HOH 139 GROUP 4 A **** 0
 48 HOH 142 GROUP 4 A **** 0
 49 HOH 145 GROUP 4 A **** 0
 50 HOH 148 GROUP 4 A **** 0
 51 HOH 151 GROUP 4 A **** 0
 52 HOH 154 GROUP 4 A **** 0
 53 HOH 157 GROUP 4 A **** 0
 54 HOH 160 GROUP 4 A **** 0
 55 HOH 163 GROUP 4 A **** 0
 56 HOH 166 GROUP 4 A **** 0
 57 HOH 169 GROUP 4 A **** 0
 58 HOH 172 GROUP 4 A **** 0
 59 HOH 175 GROUP 4 A **** 0
 60 HOH 178 GROUP 4 A **** 0
 61 HOH 181 GROUP 4 A **** 0
 62 HOH 184 GROUP 4 A **** 0
 63 HOH 187 GROUP 4 A **** 0
 64 HOH 190 GROUP 4 A **** 0
 65 HOH 193 GROUP 4 A **** 0
 66 HOH 196 GROUP 4 A **** 0
 67 HOH 199 GROUP 4 A **** 0
 68 HOH 202 GROUP 4 A **** 0
 69 HOH 205 GROUP 4 A **** 0
 70 HOH 208 GROUP 4 A **** 0
 71 HOH 211 GROUP 4 A **** 0
 72 HOH 214 GROUP 4 A **** 0
 73 HOH 217 GROUP 4 A **** 0
 74 HOH 220 GROUP 4 A **** 0
 75 HOH 223 GROUP 4 A **** 0
 76 HOH 226 GROUP 4 A **** 0
 77 HOH 229 GROUP 4 A **** 0
 78 HOH 232 GROUP 4 A **** 0
 79 HOH 235 GROUP 4 A **** 0
 80 HOH 238 GROUP 4 A **** 0
 81 HOH 241 GROUP 4 A **** 0
 82 HOH 244 GROUP 4 A **** 0
 83 HOH 247 GROUP 4 A **** 0
 84 HOH 250 GROUP 4 A **** 0
 85 HOH 253 GROUP 4 A **** 0
 86 HOH 256 GROUP 4 A **** 0
 87 HOH 259 GROUP 4 A **** 0
 88 HOH 262 GROUP 4 A **** 0
 89 HOH 265 GROUP 4 A **** 0
 90 HOH 268 GROUP 4 A **** 0
 91 HOH 271 GROUP 4 A **** 0
 92 HOH 274 GROUP 4 A **** 0
 93 HOH 277 GROUP 4 A **** 0
 94 HOH 280 GROUP 4 A **** 0
 95 HOH 283 GROUP 4 A **** 0
 96 HOH 286 GROUP 4 A **** 0
 97 HOH 289 GROUP 4 A **** 0
 98 HOH 292 GROUP 4 A **** 0
 99 HOH 295 GROUP 4 A **** 0
100 HOH 298 GROUP 4 A **** 0
101 HOH 301 GROUP 4 A **** 0
102 HOH 304 GROUP 4 A **** 0
103 HOH 307 GROUP 4 A **** 0
104 HOH 310 GROUP 4 A **** 0
105 HOH 313 GROUP 4 A **** 0
106 HOH 316 GROUP 4 A **** 0
107 HOH 319 GROUP 4 A **** 0
108 HOH 322 GROUP 4 A **** 0
109 HOH 325 GROUP 4 A **** 0
110 HOH 328 GROUP 4 A **** 0
111 HOH 331 GROUP 4 A **** 0
112 HOH 334 GROUP 4 A **** 0
113 HOH 337 GROUP 4 A **** 0
114 HOH 340 GROUP 4 A **** 0
115 HOH 343 GROUP 4 A **** 0
116 HOH 346 GROUP 4 A **** 0
117 HOH 349 GROUP 4 A **** 0
118 HOH 352 GROUP 4 A **** 0
119 HOH 355 GROUP 4 A **** 0
120 HOH 358 GROUP 4 A **** 0
121 HOH 361 GROUP 4 A **** 0
122 HOH 364 GROUP 4 A **** 0
123 HOH 367 GROUP 4 A **** 0
124 HOH 370 GROUP 4 A **** 0
125 HOH 373 GROUP 4 A **** 0
126 HOH 376 GROUP 4 A **** 0
127 HOH 379 GROUP 4 A **** 0
128 HOH 382 GROUP 4 A **** 0
129 HOH 385 GROUP 4 A **** 0
130 HOH 388 GROUP 4 A **** 0
131 HOH 391 GROUP 4 A **** 0
132 HOH 394 GROUP 4 A **** 0
133 HOH 397 GROUP 4 A **** 0
134 HOH 400 GROUP 4 A **** 0
135 HOH 403 GROUP 4 A **** 0
136 HOH 406 GROUP 4 A **** 0
137 HOH 409 GROUP 4 A **** 0
138 HOH 412 GROUP 4 A **** 0
139 HOH 415 GROUP 4 A **** 0
140 HOH 418 GROUP 4 A **** 0
141 HOH 421 GROUP 4 A **** 0
142 HOH 424 GROUP 4 A **** 0
143 HOH 427 GROUP 4 A **** 0
144 HOH 430 GROUP 4 A **** 0
145 HOH 433 GROUP 4 A **** 0
146 HOH 436 GROUP 4 A **** 0
147 HOH 439 GROUP 4 A **** 0
148 HOH 442 GROUP 4 A **** 0
149 HOH 445 GROUP 4 A **** 0
150 HOH 448 GROUP 4 A **** 0
151 HOH 451 GROUP 4 A **** 0
152 HOH 454 GROUP 4 A **** 0
153 HOH 457 GROUP 4 A **** 0
154 HOH 460 GROUP 4 A **** 0
155 HOH 463 GROUP 4 A **** 0
156 HOH 466 GROUP 4 A **** 0
157 HOH 469 GROUP 4 A **** 0
158 HOH 472 GROUP 4 A **** 0
159 HOH 475 GROUP 4 A **** 0
160 HOH 478 GROUP 4 A **** 0
161 HOH 481 GROUP 4 A **** 0
162 HOH 484 GROUP 4 A **** 0
163 HOH 487 GROUP 4 A **** 0
164 HOH 490 GROUP 4 A **** 0
165 HOH 493 GROUP 4 A **** 0
166 HOH 496 GROUP 4 A **** 0
167 HOH 499 GROUP 4 A **** 0
168 HOH 502 GROUP 4 A **** 0
169 HOH 505 GROUP 4 A **** 0
170 HOH 508 GROUP 4 A **** 0
171 HOH 511 GROUP 4 A **** 0
172 HOH 514 GROUP 4 A **** 0
173 HOH 517 GROUP 4 A **** 0
174 HOH 520 GROUP 4 A **** 0
175 HOH 523 GROUP 4 A **** 0
176 HOH 526 GROUP 4 A **** 0
177 HOH 529 GROUP 4 A **** 0
178 HOH 532 GROUP 4 A **** 0
179 HOH 535 GROUP 4 A **** 0
180 HOH 538 GROUP 4 A **** 0
181 HOH 541 GROUP 4 A **** 0
182 HOH 544 GROUP 4 A **** 0
183 HOH 547 GROUP 4 A **** 0
184 HOH 550 GROUP 4 A **** 0
185 HOH 553 GROUP 4 A **** 0
186 HOH 556 GROUP 4 A **** 0
187 HOH 559 GROUP 4 A **** 0
188 HOH 562 GROUP 4 A **** 0
189 HOH 565 GROUP 4 A **** 0
190 HOH 568 GROUP 4 A **** 0
191 HOH 571 GROUP 4 A **** 0
192 HOH 574 GROUP 4 A **** 0
193 HOH 577 GROUP 4 A **** 0
194 HOH 580 GROUP 4 A **** 0
195 HOH 583 GROUP 4 A **** 0
196 HOH 586 GROUP 4 A **** 0
197 HOH 589 GROUP 4 A **** 0
198 HOH 592 GROUP 4 A **** 0
199 HOH 595 GROUP 4 A **** 0
200 HOH 598 GROUP 4 A **** 0
201 HOH 601 GROUP 4 A **** 0
202 HOH 604 GROUP 4 A **** 0
203 HOH 607 GROUP 4 A **** 0
204 HOH 610 GROUP 4 A **** 0
205 HOH 613 GROUP 4 A **** 0
206 HOH 616 GROUP 4 A **** 0
207 HOH 619 GROUP 4 A **** 0
208 HOH 622 GROUP 4 A **** 0
209 HOH 625 GROUP 4 A **** 0
210 HOH 628 GROUP 4 A **** 0
211 HOH 631 GROUP 4 A **** 0

# MOE 2012.10 (io_trps.svl 2012.10)
