@<TRIPOS>MOLECULE
2hz4.A
66 73 1 0 0 
SMALL
USER_CHARGES


@<TRIPOS>ATOM
  1 CAB      2.4556    37.8028    46.6148 C.3   1 Q4ST   0.0400 
  2 HAB1     1.9459    38.6089    46.0870 H     1 Q4ST   0.0800 
  3 HAB2     2.9298    38.1993    47.5126 H     1 Q4ST   0.0800 
  4 HAB3     1.7321    37.0368    46.8940 H     1 Q4ST   0.0800 
  5 OAQ      3.4474    37.2324    45.7665 O.3   1 Q4ST  -0.5600 
  6 CBF      4.2574    36.1419    46.2474 C.3   1 Q4ST   0.2000 
  7 HBF      4.4714    36.2854    47.3065 H     1 Q4ST   0.0800 
  8 CBD      5.5480    36.1830    45.4275 C.3   1 Q4ST   0.4230 
  9 HBD      6.2556    35.3941    45.6826 H     1 Q4ST   0.0800 
 10 NAO      6.2941    37.4350    45.7185 N.4   1 Q4ST  -0.9060 
 11 HAO2     5.8999    38.1370    45.1088 H     1 Q4ST   0.4500 
 12 HAO1     6.0804    37.6645    46.6786 H     1 Q4ST   0.4500 
 13 CAA      7.7581    37.5697    45.5907 C.3   1 Q4ST   0.2630 
 14 HAA1     8.0568    37.3337    44.5694 H     1 Q4ST   0.0800 
 15 HAA2     8.2478    36.8824    46.2806 H     1 Q4ST   0.0800 
 16 HAA3     8.0509    38.5925    45.8278 H     1 Q4ST   0.0800 
 17 CAN      5.1287    35.9816    43.9601 C.3   1 Q4ST  -0.1600 
 18 HAN1     6.0022    35.7452    43.3525 H     1 Q4ST   0.0800 
 19 HAN2     4.6562    36.8875    43.5803 H     1 Q4ST   0.0800 
 20 CBE      4.1237    34.8051    43.9210 C.3   1 Q4ST   0.4556 
 21 HBE      4.7533    34.2470    43.2280 H     1 Q4ST   0.0800 
 22 OAR      3.9023    34.0357    45.1319 O.3   1 Q4ST  -0.5600 
 23 CBI      3.5548    34.7323    46.3413 C.3   1 Q4ST   0.5356 
 24 CAC      4.2339    33.7844    47.3511 C.3   1 Q4ST  -0.2400 
 25 HAC1     5.3137    33.8109    47.2048 H     1 Q4ST   0.0800 
 26 HAC2     3.8711    32.7683    47.1962 H     1 Q4ST   0.0800 
 27 HAC3     3.9967    34.1042    48.3658 H     1 Q4ST   0.0800 
 28 NBH      2.0782    34.7643    46.4634 N.pl3 1 Q4ST   0.0476 
 29 CAY      1.2284    34.7322    47.5976 C.ar  1 Q4ST  -0.1516 
 30 CAH      1.4775    34.6209    49.0065 C.ar  1 Q4ST  -0.1500 
 31 HAH      2.4970    34.5622    49.3580 H     1 Q4ST   0.1500 
 32 CAF      0.4054    34.5856    49.9602 C.ar  1 Q4ST  -0.1500 
 33 HAF      0.6197    34.4913    51.0145 H     1 Q4ST   0.1500 
 34 CAE     -0.9365    34.6752    49.5111 C.ar  1 Q4ST  -0.1500 
 35 HAE     -1.7573    34.6661    50.2129 H     1 Q4ST   0.1500 
 36 CAG     -1.1742    34.7776    48.1092 C.ar  1 Q4ST  -0.1500 
 37 HAG     -2.1847    34.8415    47.7334 H     1 Q4ST   0.1500 
 38 CAX     -0.0713    34.7952    47.2056 C.ar  1 Q4ST   0.0000 
 39 CBA     -0.0836    34.9006    45.7776 C.ar  1 Q4ST   0.0000 
 40 CBC      1.2820    34.8785    45.3147 C.ar  1 Q4ST  -0.1516 
 41 CBB      1.5922    34.9598    43.9848 C.ar  1 Q4ST  -0.1516 
 42 NBG      2.8117    34.9916    43.3167 N.pl3 1 Q4ST   0.0476 
 43 CAV      2.6011    35.0838    41.9605 C.2   1 Q4ST  -0.3316 
 44 CAL      3.6727    35.1127    40.8853 C.3   1 Q4ST   0.0200 
 45 HAL1     3.9338    34.0897    40.6145 H     1 Q4ST   0.0800 
 46 HAL2     4.5545    35.6219    41.2744 H     1 Q4ST   0.0800 
 47 CAJ      3.1761    35.8534    39.6325 C.3   1 Q4ST  -0.1600 
 48 HAJ1     3.9012    35.7128    38.8309 H     1 Q4ST   0.0800 
 49 HAJ2     3.0908    36.9153    39.8631 H     1 Q4ST   0.0800 
 50 CAI      1.8025    35.3359    39.1570 C.3   1 Q4ST  -0.1600 
 51 HAI1     1.9353    34.3343    38.7480 H     1 Q4ST   0.0800 
 52 HAI2     1.4360    36.0017    38.3757 H     1 Q4ST   0.0800 
 53 CAK      0.7337    35.2676    40.2844 C.3   1 Q4ST   0.0210 
 54 HAK1     0.0962    34.4047    40.0920 H     1 Q4ST   0.0800 
 55 HAK2     0.1364    36.1782    40.2375 H     1 Q4ST   0.0800 
 56 CAT      1.2806    35.1401    41.6878 C.2   1 Q4ST  -0.1810 
 57 CAZ      0.5822    35.0764    42.9588 C.ar  1 Q4ST   0.0000 
 58 CAW     -0.7621    35.1002    43.4382 C.ar  1 Q4ST   0.0862 
 59 CAU     -1.0938    35.0063    44.7951 C.ar  1 Q4ST  -0.1435 
 60 CAM     -2.5846    35.0640    45.0245 C.3   1 Q4ST   0.2836 
 61 HAM1    -2.8787    35.9311    45.6158 H     1 Q4ST   0.0800 
 62 HAM2    -2.9659    34.1574    45.4944 H     1 Q4ST   0.0800 
 63 NAP     -2.9986    35.1803    43.6234 N.am  1 Q4ST  -0.7301 
 64 HAP     -3.9711    35.2367    43.3567 H     1 Q4ST   0.3700 
 65 CAS     -2.0075    35.2076    42.7121 C.2   1 Q4ST   0.5438 
 66 OAD     -2.1081    35.3118    41.4917 O.2   1 Q4ST  -0.5700 
@<TRIPOS>BOND
  1   1   2  1   
  2   1   3  1   
  3   1   4  1   
  4   1   5  1   
  5   5   6  1   
  6   6   7  1   
  7   6   8  1   
  8   6  23  1   
  9   8   9  1   
 10   8  10  1   
 11   8  17  1   
 12  10  11  1   
 13  10  12  1   
 14  10  13  1   
 15  13  14  1   
 16  13  15  1   
 17  13  16  1   
 18  17  18  1   
 19  17  19  1   
 20  17  20  1   
 21  20  21  1   
 22  20  22  1   
 23  20  42  1   
 24  22  23  1   
 25  23  24  1   
 26  23  28  1   
 27  24  25  1   
 28  24  26  1   
 29  24  27  1   
 30  28  29  1   
 31  28  40  1   
 32  29  30  ar  
 33  29  38  ar  
 34  30  31  1   
 35  30  32  ar  
 36  32  33  1   
 37  32  34  ar  
 38  34  35  1   
 39  34  36  ar  
 40  36  37  1   
 41  36  38  ar  
 42  38  39  1   
 43  39  40  ar  
 44  39  59  ar  
 45  40  41  ar  
 46  41  42  1   
 47  41  57  ar  
 48  42  43  1   
 49  43  44  1   
 50  43  56  2   
 51  44  45  1   
 52  44  46  1   
 53  44  47  1   
 54  47  48  1   
 55  47  49  1   
 56  47  50  1   
 57  50  51  1   
 58  50  52  1   
 59  50  53  1   
 60  53  54  1   
 61  53  55  1   
 62  53  56  1   
 63  56  57  1   
 64  57  58  ar  
 65  58  59  ar  
 66  58  65  1   
 67  59  60  1   
 68  60  61  1   
 69  60  62  1   
 70  60  63  1   
 71  63  64  1   
 72  63  65  am  
 73  65  66  2   
@<TRIPOS>SUBSTRUCTURE
  1 Q4ST  41 GROUP 4 A **** 0

# MOE 2012.10 (io_trps.svl 2012.10)
