@<TRIPOS>MOLECULE
2hz4.A
6 4 2 0 0 
SMALL
NO_CHARGES


@<TRIPOS>ATOM
  1 O       -4.4924    22.6761    15.6662 O.3   1 HOH   0.0000 
  2 H1      -3.5324    22.6761    15.6662 H     1 HOH   0.0000 
  3 H2      -4.7827    23.3231    16.3133 H     1 HOH   0.0000 
  4 O      -13.0994    19.8917    47.9127 O.3   2 HOH   0.0000 
  5 H1     -12.1394    19.8917    47.9127 H     2 HOH   0.0000 
  6 H2     -13.3897    20.5387    48.5597 H     2 HOH   0.0000 
@<TRIPOS>BOND
  1   1   2  1   
  2   1   3  1   
  3   4   5  1   
  4   4   6  1   
@<TRIPOS>SUBSTRUCTURE
  1 HOH   1 GROUP 4 A **** 0
  2 HOH   4 GROUP 4 A **** 0

# MOE 2012.10 (io_trps.svl 2012.10)
