@<TRIPOS>MOLECULE
3pyy.A
38 41 1 0 0 
SMALL
USER_CHARGES


@<TRIPOS>ATOM
  1 C1     -27.5483    11.2362    37.7780 C.ar  1 Q3YY  -0.1500 
  2 H1     -28.5691    11.5175    37.9909 H     1 Q3YY   0.1500 
  3 C2     -27.1593     9.9246    37.9276 C.ar  1 Q3YY  -0.1500 
  4 H2     -27.8718     9.1830    38.2573 H     1 Q3YY   0.1500 
  5 C3     -26.6519    12.1943    37.3603 C.ar  1 Q3YY  -0.1500 
  6 H3     -26.9705    13.2199    37.2461 H     1 Q3YY   0.1500 
  7 C4     -19.7236    10.3106    34.7657 C.ar  1 Q3YY  -0.1500 
  8 H4     -19.8439     9.2460    34.6292 H     1 Q3YY   0.1500 
  9 C5     -20.4377    12.3720    35.7308 C.ar  1 Q3YY  -0.1500 
 10 H5     -21.1268    12.9220    36.3545 H     1 Q3YY   0.1500 
 11 C6     -25.8599     9.5602    37.6559 C.ar  1 Q3YY  -0.1500 
 12 H6     -25.5378     8.5357    37.7702 H     1 Q3YY   0.1500 
 13 C7     -25.3491    11.8429    37.0886 C.ar  1 Q3YY  -0.1500 
 14 H7     -24.6320    12.5835    36.7667 H     1 Q3YY   0.1500 
 15 C8     -18.6917    10.9760    34.1400 C.ar  1 Q3YY  -0.1500 
 16 H8     -18.0041    10.4266    33.5141 H     1 Q3YY   0.1500 
 17 C9     -19.3984    13.0360    35.1028 C.ar  1 Q3YY  -0.1500 
 18 H9     -19.2722    14.0998    35.2393 H     1 Q3YY   0.1500 
 19 C10    -23.0474     9.0325    37.3814 C.2   1 Q3YY  -0.3016 
 20 H10    -23.4825     8.2285    37.9564 H     1 Q3YY   0.1500 
 21 C11    -20.5994    11.0071    35.5644 C.ar  1 Q3YY   0.0540 
 22 C12    -21.7533     9.1179    36.9179 C.2   1 Q3YY  -0.1810 
 23 C13    -24.9839    10.5289    37.2366 C.ar  1 Q3YY  -0.0230 
 24 C14    -18.5272    12.3327    34.3036 C.ar  1 Q3YY   0.1900 
 25 C15    -21.6936    10.3604    36.2310 C.2   1 Q3YY   0.2348 
 26 C16    -20.7828     6.9790    36.1402 C.2   1 Q3YY   0.5690 
 27 C17    -21.0674     6.0572    38.1798 C.2   1 Q3YY   0.6900 
 28 C18    -20.6889     8.1220    37.1192 C.3   1 Q3YY   0.4621 
 29 H18    -19.7577     8.6845    37.0518 H     1 Q3YY   0.0800 
 30 N19    -22.8717    10.9965    36.2683 N.2   1 Q3YY  -0.7068 
 31 N20    -23.6653    10.1742    36.9635 N.pl3 1 Q3YY   0.5926 
 32 N21    -21.0282     5.8337    36.8335 N.am  1 Q3YY  -0.4900 
 33 H21    -21.1644     4.9295    36.4047 H     1 Q3YY   0.3700 
 34 N22    -20.9265     7.4082    38.3580 N.am  1 Q3YY  -0.7301 
 35 H22    -20.9824     7.8601    39.2595 H     1 Q3YY   0.3700 
 36 O23    -20.6105     7.0668    34.9366 O.2   1 Q3YY  -0.5700 
 37 O24    -21.2164     5.2014    39.0378 O.2   1 Q3YY  -0.5700 
 38 F25    -17.4978    12.9654    33.6830 F     1 Q3YY  -0.1900 
@<TRIPOS>BOND
  1   1   2  1   
  2   1   3  ar  
  3   1   5  ar  
  4   3   4  1   
  5   3  11  ar  
  6   5   6  1   
  7   5  13  ar  
  8   7   8  1   
  9   7  15  ar  
 10   7  21  ar  
 11   9  10  1   
 12   9  17  ar  
 13   9  21  ar  
 14  11  12  1   
 15  11  23  ar  
 16  13  14  1   
 17  13  23  ar  
 18  15  16  1   
 19  15  24  ar  
 20  17  18  1   
 21  17  24  ar  
 22  19  20  1   
 23  19  22  2   
 24  19  31  1   
 25  21  25  1   
 26  22  25  1   
 27  22  28  1   
 28  23  31  1   
 29  24  38  1   
 30  25  30  2   
 31  26  28  1   
 32  26  32  am  
 33  26  36  2   
 34  27  32  am  
 35  27  34  am  
 36  27  37  2   
 37  28  29  1   
 38  28  34  1   
 39  30  31  1   
 40  32  33  1   
 41  34  35  1   
@<TRIPOS>SUBSTRUCTURE
  1 Q3YY  25 GROUP 4 A **** 0

# MOE 2012.10 (io_trps.svl 2012.10)
