@<TRIPOS>MOLECULE
3pyy.A
10 8 2 0 0 
SMALL
USER_CHARGES


@<TRIPOS>ATOM
  1 S      -26.1565     0.5278    34.0917 S.o2  1 SO4   0.0000 
  2 O1     -26.8944     0.1321    32.8910 O.co2 1 SO4  -0.5000 
  3 O2     -25.1461    -0.4747    34.3831 O.co2 1 SO4  -0.5000 
  4 O3     -25.5470     1.8258    33.8745 O.co2 1 SO4  -0.5000 
  5 O4     -27.1005     0.6335    35.1981 O.co2 1 SO4  -0.5000 
  6 S      -21.4586     7.7716    16.4846 S.o2  2 SO4   0.0000 
  7 O1     -22.7786     8.3695    16.2760 O.co2 2 SO4  -0.5000 
  8 O2     -21.5998     6.3323    16.7141 O.co2 2 SO4  -0.5000 
  9 O3     -20.6198     8.0004    15.3038 O.co2 2 SO4  -0.5000 
 10 O4     -20.8305     8.3911    17.6530 O.co2 2 SO4  -0.5000 
@<TRIPOS>BOND
  1   1   2  ar  
  2   1   3  ar  
  3   1   4  ar  
  4   1   5  ar  
  5   6   7  ar  
  6   6   8  ar  
  7   6   9  ar  
  8   6  10  ar  
@<TRIPOS>SUBSTRUCTURE
  1 SO4   1 GROUP 4 A **** 0
  2 SO4   6 GROUP 4 A **** 0

# MOE 2012.10 (io_trps.svl 2012.10)
