@<TRIPOS>MOLECULE
3pyy.A
69 73 1 0 0 
SMALL
USER_CHARGES


@<TRIPOS>ATOM
  1 C1       0.3570    17.8904    43.8378 C.ar  1 STI3  -0.1500 
  2 H1       0.3031    16.8858    44.2305 H     1 STI3   0.1500 
  3 C6       1.1968    18.1931    42.7889 C.ar  1 STI3  -0.1500 
  4 H6       1.8116    17.4229    42.3470 H     1 STI3   0.1500 
  5 C5       1.2496    19.4834    42.3053 C.ar  1 STI3   0.0000 
  6 C4       0.4214    20.4073    42.9078 C.ar  1 STI3   0.1600 
  7 H4       0.4403    21.4150    42.5198 H     1 STI3   0.1500 
  8 N3      -0.4045    20.1609    43.9334 N.ar  1 STI3  -0.6200 
  9 C2      -0.4121    18.8986    44.3739 C.ar  1 STI3   0.1600 
 10 H2      -1.0618    18.6547    45.2015 H     1 STI3   0.1500 
 11 C7       2.0938    19.8385    41.1821 C.ar  1 STI3   0.3100 
 12 C12      2.9223    18.9174    40.5829 C.ar  1 STI3  -0.1500 
 13 H12      2.9879    17.8998    40.9389 H     1 STI3   0.1500 
 14 C11      3.6611    19.3528    39.5119 C.ar  1 STI3   0.1600 
 15 H11      4.3306    18.6555    39.0303 H     1 STI3   0.1500 
 16 N10      3.5904    20.6016    39.0368 N.ar  1 STI3  -0.6200 
 17 C9       2.7541    21.4234    39.6777 C.ar  1 STI3   0.7200 
 18 N8       2.0104    21.0998    40.7400 N.ar  1 STI3  -0.6200 
 19 N13      2.6506    22.7479    39.2313 N.pl3 1 STI3  -0.6000 
 20 H13      2.0683    23.3821    39.7593 H     1 STI3   0.4000 
 21 C14      3.3056    23.2462    38.0974 C.ar  1 STI3   0.1000 
 22 C19      4.5770    23.7601    38.2503 C.ar  1 STI3  -0.1435 
 23 C18      5.2511    24.2792    37.1705 C.ar  1 STI3  -0.1500 
 24 H18      6.2473    24.6775    37.2940 H     1 STI3   0.1500 
 25 C17      4.6521    24.2895    35.9324 C.ar  1 STI3  -0.1500 
 26 H17      5.1805    24.6993    35.0843 H     1 STI3   0.1500 
 27 C16      3.3858    23.7818    35.7674 C.ar  1 STI3   0.1170 
 28 C15      2.7032    23.2578    36.8520 C.ar  1 STI3  -0.1500 
 29 H15      1.7067    22.8606    36.7267 H     1 STI3   0.1500 
 30 N21      2.8508    23.8481    34.4683 N.am  1 STI3  -0.5470 
 31 H21      3.4578    24.1543    33.7214 H     1 STI3   0.3700 
 32 C22      1.5552    23.5227    34.1520 C.2   1 STI3   0.5438 
 33 C23      1.1020    23.9834    32.8242 C.ar  1 STI3   0.0862 
 34 C25     -0.2490    24.0153    32.5920 C.ar  1 STI3  -0.1500 
 35 H25     -0.9388    23.7211    33.3692 H     1 STI3   0.1500 
 36 C26     -0.7245    24.4232    31.3655 C.ar  1 STI3  -0.1500 
 37 H26     -1.7890    24.4431    31.1841 H     1 STI3   0.1500 
 38 C27      0.1445    24.8058    30.3685 C.ar  1 STI3  -0.1435 
 39 C28      1.5004    24.7706    30.6128 C.ar  1 STI3  -0.1500 
 40 H28      2.1904    25.0696    29.8376 H     1 STI3   0.1500 
 41 C29      1.9874    24.3570    31.8392 C.ar  1 STI3  -0.1500 
 42 H29      3.0514    24.3274    32.0219 H     1 STI3   0.1500 
 43 C46     -0.4112    25.2502    29.0500 C.3   1 STI3   0.2535 
 44 H461    -0.2371    26.3210    28.9443 H     1 STI3   0.0800 
 45 H462    -1.4833    25.0540    29.0424 H     1 STI3   0.0800 
 46 N48      0.2060    24.5530    27.8852 N.3   1 STI3  -0.8100 
 47 C53      0.0752    23.0793    27.9498 C.3   1 STI3   0.1100 
 48 H531    -0.9477    22.7828    27.7182 H     1 STI3   0.0800 
 49 H532     0.3406    22.7221    28.9449 H     1 STI3   0.0800 
 50 C52      1.0267    22.5121    26.9225 C.3   1 STI3   0.3430 
 51 H521     0.9755    21.4234    26.9242 H     1 STI3   0.0800 
 52 H522     2.0468    22.8282    27.1407 H     1 STI3   0.0800 
 53 N51      0.5985    23.0419    25.6038 N.4   1 STI3  -0.9590 
 54 H51     -0.3774    22.8030    25.5010 H     1 STI3   0.4500 
 55 C54      1.3362    22.3965    24.4951 C.3   1 STI3   0.2630 
 56 H541     1.2581    21.3134    24.5888 H     1 STI3   0.0800 
 57 H542     2.3850    22.6902    24.5371 H     1 STI3   0.0800 
 58 H543     0.9087    22.7107    23.5429 H     1 STI3   0.0800 
 59 C50      0.6704    24.5257    25.5275 C.3   1 STI3   0.3430 
 60 H501     0.3576    24.8624    24.5391 H     1 STI3   0.0800 
 61 H502     1.6907    24.8584    25.7185 H     1 STI3   0.0800 
 62 C49     -0.2596    25.0849    26.5806 C.3   1 STI3   0.1100 
 63 H491    -0.2151    26.1740    26.5813 H     1 STI3   0.0800 
 64 H492    -1.2830    24.7633    26.3873 H     1 STI3   0.0800 
 65 O29      0.7789    22.8815    34.8504 O.2   1 STI3  -0.5700 
 66 C20      5.2351    23.7564    39.5873 C.3   1 STI3  -0.0965 
 67 H201     4.5634    23.3120    40.3217 H     1 STI3   0.0800 
 68 H202     5.4680    24.7801    39.8805 H     1 STI3   0.0800 
 69 H203     6.1554    23.1745    39.5377 H     1 STI3   0.0800 
@<TRIPOS>BOND
  1   1   2  1   
  2   1   3  ar  
  3   1   9  ar  
  4   3   4  1   
  5   3   5  ar  
  6   5   6  ar  
  7   5  11  1   
  8   6   7  1   
  9   6   8  ar  
 10   8   9  ar  
 11   9  10  1   
 12  11  12  ar  
 13  11  18  ar  
 14  12  13  1   
 15  12  14  ar  
 16  14  15  1   
 17  14  16  ar  
 18  16  17  ar  
 19  17  18  ar  
 20  17  19  1   
 21  19  20  1   
 22  19  21  1   
 23  21  22  ar  
 24  21  28  ar  
 25  22  23  ar  
 26  22  66  1   
 27  23  24  1   
 28  23  25  ar  
 29  25  26  1   
 30  25  27  ar  
 31  27  28  ar  
 32  27  30  1   
 33  28  29  1   
 34  30  31  1   
 35  30  32  am  
 36  32  33  1   
 37  32  65  2   
 38  33  34  ar  
 39  33  41  ar  
 40  34  35  1   
 41  34  36  ar  
 42  36  37  1   
 43  36  38  ar  
 44  38  39  ar  
 45  38  43  1   
 46  39  40  1   
 47  39  41  ar  
 48  41  42  1   
 49  43  44  1   
 50  43  45  1   
 51  43  46  1   
 52  46  47  1   
 53  46  62  1   
 54  47  48  1   
 55  47  49  1   
 56  47  50  1   
 57  50  51  1   
 58  50  52  1   
 59  50  53  1   
 60  53  54  1   
 61  53  55  1   
 62  53  59  1   
 63  55  56  1   
 64  55  57  1   
 65  55  58  1   
 66  59  60  1   
 67  59  61  1   
 68  59  62  1   
 69  62  63  1   
 70  62  64  1   
 71  66  67  1   
 72  66  68  1   
 73  66  69  1   
@<TRIPOS>SUBSTRUCTURE
  1 STI3  65 GROUP 4 A **** 0

# MOE 2012.10 (io_trps.svl 2012.10)
