@<TRIPOS>MOLECULE
3pyy.A
357 238 119 0 0 
SMALL
USER_CHARGES


@<TRIPOS>ATOM
  1 O       -3.5772    12.6008    27.0176 O.3     1 HOH   0.0000 
  2 H1      -2.6172    12.6008    27.0176 H       1 HOH   0.0000 
  3 H2      -3.8675    13.2478    27.6647 H       1 HOH   0.0000 
  4 O        2.1214    11.1360    38.4556 O.3     2 HOH   0.0000 
  5 H1       3.0814    11.1360    38.4556 H       2 HOH   0.0000 
  6 H2       1.8311    11.7830    39.1027 H       2 HOH   0.0000 
  7 O       -1.6816    27.2914    46.8552 O.3     3 HOH   0.0000 
  8 H1      -0.7216    27.2914    46.8552 H       3 HOH   0.0000 
  9 H2      -1.9719    27.9384    47.5023 H       3 HOH   0.0000 
 10 O       -8.6386     6.8663    22.6715 O.3     4 HOH   0.0000 
 11 H1      -7.6786     6.8663    22.6715 H       4 HOH   0.0000 
 12 H2      -8.9289     7.5134    23.3186 H       4 HOH   0.0000 
 13 O       -4.8733    30.1094    35.8872 O.3     5 HOH   0.0000 
 14 H1      -3.9133    30.1094    35.8872 H       5 HOH   0.0000 
 15 H2      -5.1635    30.7564    36.5343 H       5 HOH   0.0000 
 16 O       -0.3327    14.1578    43.0943 O.3     6 HOH  -0.8340 
 17 H1       0.1497    14.1737    42.2677 H       6 HOH   0.4170 
 18 H2       0.3456    14.1910    43.7688 H       6 HOH   0.4170 
 19 O      -16.8272     8.6333    13.9815 O.3     7 HOH   0.0000 
 20 H1     -15.8672     8.6333    13.9815 H       7 HOH   0.0000 
 21 H2     -17.1175     9.2804    14.6285 H       7 HOH   0.0000 
 22 O      -18.0026     8.1403    18.8417 O.3     8 HOH   0.0000 
 23 H1     -17.0426     8.1403    18.8417 H       8 HOH   0.0000 
 24 H2     -18.2929     8.7874    19.4887 H       8 HOH   0.0000 
 25 O      -12.7266    14.7976    51.3175 O.3     9 HOH   0.0000 
 26 H1     -11.7666    14.7976    51.3175 H       9 HOH   0.0000 
 27 H2     -13.0169    15.4447    51.9645 H       9 HOH   0.0000 
 28 O       -6.5213     6.4911    21.1215 O.3    10 HOH   0.0000 
 29 H1      -5.5613     6.4911    21.1215 H      10 HOH   0.0000 
 30 H2      -6.8116     7.1381    21.7685 H      10 HOH   0.0000 
 31 O       -5.0114    16.4210    25.0159 O.3    11 HOH   0.0000 
 32 H1      -4.0514    16.4210    25.0159 H      11 HOH   0.0000 
 33 H2      -5.3017    17.0680    25.6630 H      11 HOH   0.0000 
 34 O      -13.5044     5.0086    22.7491 O.3    12 HOH   0.0000 
 35 H1     -12.5444     5.0086    22.7491 H      12 HOH   0.0000 
 36 H2     -13.7946     5.6557    23.3961 H      12 HOH   0.0000 
 37 O      -13.1311    17.2494    50.1329 O.3    13 HOH   0.0000 
 38 H1     -12.1711    17.2494    50.1329 H      13 HOH   0.0000 
 39 H2     -13.4213    17.8964    50.7800 H      13 HOH   0.0000 
 40 O        6.9418    35.4558    51.1096 O.3    14 HOH   0.0000 
 41 H1       7.9018    35.4558    51.1096 H      14 HOH   0.0000 
 42 H2       6.6516    36.1029    51.7567 H      14 HOH   0.0000 
 43 O        5.2993    20.5982    36.7082 O.3    15 HOH  -0.8340 
 44 H1       4.5875    21.0406    37.1707 H      15 HOH   0.4170 
 45 H2       5.3517    21.0460    35.8638 H      15 HOH   0.4170 
 46 O       -7.0655     6.1888    33.7961 O.3    16 HOH   0.0000 
 47 H1      -6.1055     6.1888    33.7961 H      16 HOH   0.0000 
 48 H2      -7.3558     6.8359    34.4431 H      16 HOH   0.0000 
 49 O       -6.1993    31.4812    38.1765 O.3    17 HOH   0.0000 
 50 H1      -5.2393    31.4812    38.1765 H      17 HOH   0.0000 
 51 H2      -6.4896    32.1283    38.8235 H      17 HOH   0.0000 
 52 O       -4.3330    25.6739    46.3005 O.3    18 HOH   0.0000 
 53 H1      -3.3730    25.6739    46.3005 H      18 HOH   0.0000 
 54 H2      -4.6233    26.3210    46.9475 H      18 HOH   0.0000 
 55 O       -4.8942     9.8296    33.5414 O.3    19 HOH   0.0000 
 56 H1      -3.9342     9.8296    33.5414 H      19 HOH   0.0000 
 57 H2      -5.1845    10.4767    34.1884 H      19 HOH   0.0000 
 58 O       -2.0805     4.7597    26.8634 O.3    20 HOH   0.0000 
 59 H1      -1.1205     4.7597    26.8634 H      20 HOH   0.0000 
 60 H2      -2.3708     5.4068    27.5105 H      20 HOH   0.0000 
 61 O      -15.1904    27.5940    35.6747 O.3    21 HOH   0.0000 
 62 H1     -14.2304    27.5940    35.6747 H      21 HOH   0.0000 
 63 H2     -15.4807    28.2410    36.3217 H      21 HOH   0.0000 
 64 O       -0.5465    25.8499    22.1710 O.3    22 HOH  -0.8340 
 65 H1       0.0113    26.6264    22.1240 H      22 HOH   0.4170 
 66 H2      -0.3605    25.3715    21.3631 H      22 HOH   0.4170 
 67 O       -2.9814     7.7703    33.2616 O.3    23 HOH   0.0000 
 68 H1      -2.0214     7.7703    33.2616 H      23 HOH   0.0000 
 69 H2      -3.2717     8.4174    33.9087 H      23 HOH   0.0000 
 70 O      -16.5892     1.0685    28.9234 O.3    24 HOH   0.0000 
 71 H1     -15.6292     1.0685    28.9234 H      24 HOH   0.0000 
 72 H2     -16.8794     1.7155    29.5704 H      24 HOH   0.0000 
 73 O        8.0664     2.3333    24.9856 O.3    25 HOH   0.0000 
 74 H1       9.0264     2.3333    24.9856 H      25 HOH   0.0000 
 75 H2       7.7761     2.9804    25.6327 H      25 HOH   0.0000 
 76 O      -14.0225     5.7177    13.4424 O.3    26 HOH   0.0000 
 77 H1     -13.0625     5.7177    13.4424 H      26 HOH   0.0000 
 78 H2     -14.3128     6.3648    14.0894 H      26 HOH   0.0000 
 79 O       -5.8626    -7.3207    22.9989 O.3    27 HOH   0.0000 
 80 H1      -4.9026    -7.3207    22.9989 H      27 HOH   0.0000 
 81 H2      -6.1529    -6.6737    23.6459 H      27 HOH   0.0000 
 82 O      -22.5911     1.5238    25.2427 O.3    28 HOH   0.0000 
 83 H1     -21.6311     1.5238    25.2427 H      28 HOH   0.0000 
 84 H2     -22.8813     2.1709    25.8898 H      28 HOH   0.0000 
 85 O       -0.4271    22.2691    52.7048 O.3    29 HOH   0.0000 
 86 H1       0.5329    22.2691    52.7048 H      29 HOH   0.0000 
 87 H2      -0.7174    22.9161    53.3519 H      29 HOH   0.0000 
 88 O       -1.3664    34.0589    34.5790 O.3    30 HOH   0.0000 
 89 H1      -0.4064    34.0589    34.5790 H      30 HOH   0.0000 
 90 H2      -1.6567    34.7059    35.2260 H      30 HOH   0.0000 
 91 O       -7.1517    30.3050    40.5302 O.3    31 HOH   0.0000 
 92 H1      -6.1917    30.3050    40.5302 H      31 HOH   0.0000 
 93 H2      -7.4420    30.9520    41.1772 H      31 HOH   0.0000 
 94 O       -8.9489    31.8566    40.8244 O.3    32 HOH   0.0000 
 95 H1      -7.9889    31.8566    40.8244 H      32 HOH   0.0000 
 96 H2      -9.2391    32.5037    41.4714 H      32 HOH   0.0000 
 97 O        6.1596    37.4255    47.0949 O.3    33 HOH   0.0000 
 98 H1       7.1196    37.4255    47.0949 H      33 HOH   0.0000 
 99 H2       5.8694    38.0726    47.7419 H      33 HOH   0.0000 
100 O       -2.6524     0.7236    18.3255 O.3    34 HOH   0.0000 
101 H1      -1.6924     0.7236    18.3255 H      34 HOH   0.0000 
102 H2      -2.9427     1.3707    18.9726 H      34 HOH   0.0000 
103 O        8.6745    14.9890    41.9538 O.3    35 HOH   0.0000 
104 H1       9.6345    14.9890    41.9538 H      35 HOH   0.0000 
105 H2       8.3842    15.6360    42.6008 H      35 HOH   0.0000 
106 O        8.4827    36.7258    52.8955 O.3    36 HOH   0.0000 
107 H1       9.4427    36.7258    52.8955 H      36 HOH   0.0000 
108 H2       8.1924    37.3729    53.5426 H      36 HOH   0.0000 
109 O      -12.8619     5.2278    44.4736 O.3    37 HOH   0.0000 
110 H1     -11.9019     5.2278    44.4736 H      37 HOH   0.0000 
111 H2     -13.1522     5.8749    45.1206 H      37 HOH   0.0000 
112 O        6.0543    17.7322    36.7186 O.3    38 HOH  -0.8340 
113 H1       6.0581    17.4819    35.7947 H      38 HOH   0.4170 
114 H2       5.7570    18.6421    36.7195 H      38 HOH   0.4170 
115 O       -3.7126    -0.9854    15.9139 O.3    39 HOH   0.0000 
116 H1      -2.7526    -0.9854    15.9139 H      39 HOH   0.0000 
117 H2      -4.0029    -0.3383    16.5610 H      39 HOH   0.0000 
118 O      -13.8021    16.2252    45.5728 O.3    40 HOH   0.0000 
119 H1     -12.8421    16.2252    45.5728 H      40 HOH   0.0000 
120 H2     -14.0923    16.8722    46.2199 H      40 HOH   0.0000 
121 O       15.8383    37.0569    47.8971 O.3    41 HOH   0.0000 
122 H1      16.7983    37.0569    47.8971 H      41 HOH   0.0000 
123 H2      15.5480    37.7039    48.5442 H      41 HOH   0.0000 
124 O        5.1319    21.2303    34.0110 O.3    42 HOH  -0.8340 
125 H1       5.1673    22.0610    33.5367 H      42 HOH   0.4170 
126 H2       4.2686    20.8723    33.8039 H      42 HOH   0.4170 
127 O       12.3166    37.9103    50.8284 O.3    43 HOH   0.0000 
128 H1      13.2766    37.9103    50.8284 H      43 HOH   0.0000 
129 H2      12.0264    38.5573    51.4755 H      43 HOH   0.0000 
130 O       -4.4207     5.2015    33.6539 O.3    44 HOH   0.0000 
131 H1      -3.4607     5.2015    33.6539 H      44 HOH   0.0000 
132 H2      -4.7110     5.8486    34.3010 H      44 HOH   0.0000 
133 O      -11.7916    13.3815    49.3781 O.3    45 HOH   0.0000 
134 H1     -10.8316    13.3815    49.3781 H      45 HOH   0.0000 
135 H2     -12.0819    14.0286    50.0251 H      45 HOH   0.0000 
136 O       13.6107    16.0297    48.7457 O.3    46 HOH   0.0000 
137 H1      14.5707    16.0297    48.7457 H      46 HOH   0.0000 
138 H2      13.3204    16.6767    49.3928 H      46 HOH   0.0000 
139 O       -1.0688    30.3139    34.8832 O.3    47 HOH   0.0000 
140 H1      -0.1088    30.3139    34.8832 H      47 HOH   0.0000 
141 H2      -1.3591    30.9609    35.5303 H      47 HOH   0.0000 
142 O       -4.3904    12.4271    44.4627 O.3    48 HOH   0.0000 
143 H1      -3.4304    12.4271    44.4627 H      48 HOH   0.0000 
144 H2      -4.6806    13.0742    45.1098 H      48 HOH   0.0000 
145 O      -12.4220    -3.1080    27.2677 O.3    49 HOH   0.0000 
146 H1     -11.4620    -3.1080    27.2677 H      49 HOH   0.0000 
147 H2     -12.7122    -2.4610    27.9148 H      49 HOH   0.0000 
148 O      -18.5637     3.2989    35.9832 O.3    50 HOH  -0.8340 
149 H1     -18.2002     4.0738    36.4118 H      50 HOH   0.4170 
150 H2     -19.4951     3.4951    35.8824 H      50 HOH   0.4170 
151 O        8.9961    39.9274    49.9104 O.3    51 HOH   0.0000 
152 H1       9.9561    39.9274    49.9104 H      51 HOH   0.0000 
153 H2       8.7059    40.5745    50.5575 H      51 HOH   0.0000 
154 O       -5.2123    29.9119    42.1369 O.3    52 HOH   0.0000 
155 H1      -4.2523    29.9119    42.1369 H      52 HOH   0.0000 
156 H2      -5.5026    30.5589    42.7840 H      52 HOH   0.0000 
157 O      -14.1339    28.6095    23.6391 O.3    53 HOH   0.0000 
158 H1     -13.1739    28.6095    23.6391 H      53 HOH   0.0000 
159 H2     -14.4241    29.2566    24.2862 H      53 HOH   0.0000 
160 O      -23.1141    11.6169    20.5473 O.3    54 HOH   0.0000 
161 H1     -22.1541    11.6169    20.5473 H      54 HOH   0.0000 
162 H2     -23.4044    12.2640    21.1944 H      54 HOH   0.0000 
163 O       -4.1388    22.0356    52.1902 O.3    55 HOH   0.0000 
164 H1      -3.1788    22.0356    52.1902 H      55 HOH   0.0000 
165 H2      -4.4291    22.6827    52.8372 H      55 HOH   0.0000 
166 O        1.1212    18.5951    26.9344 O.3    56 HOH  -0.8340 
167 H1       0.1890    18.7805    27.0481 H      56 HOH   0.4170 
168 H2       1.5532    19.1109    27.6152 H      56 HOH   0.4170 
169 O       -5.7655    27.6075    45.0519 O.3    57 HOH   0.0000 
170 H1      -4.8055    27.6075    45.0519 H      57 HOH   0.0000 
171 H2      -6.0558    28.2545    45.6990 H      57 HOH   0.0000 
172 O      -13.3970    -1.0527    25.7717 O.3    58 HOH   0.0000 
173 H1     -12.4370    -1.0527    25.7717 H      58 HOH   0.0000 
174 H2     -13.6873    -0.4056    26.4187 H      58 HOH   0.0000 
175 O        8.7887    39.4524    52.4294 O.3    59 HOH   0.0000 
176 H1       9.7487    39.4524    52.4294 H      59 HOH   0.0000 
177 H2       8.4984    40.0995    53.0764 H      59 HOH   0.0000 
178 O      -28.9594    11.1794    30.6524 O.3    60 HOH   0.0000 
179 H1     -27.9994    11.1794    30.6524 H      60 HOH   0.0000 
180 H2     -29.2497    11.8264    31.2994 H      60 HOH   0.0000 
181 O       -8.5438    33.0083    37.8704 O.3    61 HOH   0.0000 
182 H1      -7.5838    33.0083    37.8704 H      61 HOH   0.0000 
183 H2      -8.8341    33.6554    38.5174 H      61 HOH   0.0000 
184 O      -17.8914    26.2394    35.2632 O.3    62 HOH   0.0000 
185 H1     -16.9314    26.2394    35.2632 H      62 HOH   0.0000 
186 H2     -18.1817    26.8865    35.9103 H      62 HOH   0.0000 
187 O      -22.0555     1.1427    22.7181 O.3    63 HOH   0.0000 
188 H1     -21.0955     1.1427    22.7181 H      63 HOH   0.0000 
189 H2     -22.3458     1.7897    23.3652 H      63 HOH   0.0000 
190 O       -3.6838    12.8571    24.3472 O.3    64 HOH   0.0000 
191 H1      -2.7238    12.8571    24.3472 H      64 HOH   0.0000 
192 H2      -3.9741    13.5041    24.9942 H      64 HOH   0.0000 
193 O      -17.3669    -1.2397    14.1158 O.3    65 HOH   0.0000 
194 H1     -16.4069    -1.2397    14.1158 H      65 HOH   0.0000 
195 H2     -17.6572    -0.5927    14.7628 H      65 HOH   0.0000 
196 O        9.4119    39.3623    45.9087 O.3    66 HOH   0.0000 
197 H1      10.3719    39.3623    45.9087 H      66 HOH   0.0000 
198 H2       9.1216    40.0093    46.5557 H      66 HOH   0.0000 
199 O       -5.9263    -7.4107    14.6837 O.3    67 HOH   0.0000 
200 H1      -4.9663    -7.4107    14.6837 H      67 HOH   0.0000 
201 H2      -6.2166    -6.7637    15.3307 H      67 HOH   0.0000 
202 O       -6.3487    24.2998    17.5268 O.3    68 HOH   0.0000 
203 H1      -5.3887    24.2998    17.5268 H      68 HOH   0.0000 
204 H2      -6.6389    24.9469    18.1739 H      68 HOH   0.0000 
205 O        0.5642     4.3346    25.4642 O.3    69 HOH   0.0000 
206 H1       1.5242     4.3346    25.4642 H      69 HOH   0.0000 
207 H2       0.2740     4.9816    26.1112 H      69 HOH   0.0000 
208 O      -16.6924    11.8398    12.0863 O.3    70 HOH   0.0000 
209 H1     -15.7324    11.8398    12.0863 H      70 HOH   0.0000 
210 H2     -16.9826    12.4869    12.7333 H      70 HOH   0.0000 
211 O      -17.0063    -0.3312    31.3508 O.3    71 HOH   0.0000 
212 H1     -16.0463    -0.3312    31.3508 H      71 HOH   0.0000 
213 H2     -17.2965     0.3159    31.9978 H      71 HOH   0.0000 
214 O       -4.2986    17.3868    21.6450 O.3    72 HOH   0.0000 
215 H1      -3.3386    17.3868    21.6450 H      72 HOH   0.0000 
216 H2      -4.5889    18.0338    22.2921 H      72 HOH   0.0000 
217 O       10.6112    37.5925    35.3423 O.3    73 HOH   0.0000 
218 H1      11.5712    37.5925    35.3423 H      73 HOH   0.0000 
219 H2      10.3209    38.2396    35.9894 H      73 HOH   0.0000 
220 O        6.8935     7.6626    30.0344 O.3    74 HOH   0.0000 
221 H1       7.8535     7.6626    30.0344 H      74 HOH   0.0000 
222 H2       6.6032     8.3096    30.6814 H      74 HOH   0.0000 
223 O      -13.2990    10.7087    49.7109 O.3    75 HOH   0.0000 
224 H1     -12.3390    10.7087    49.7109 H      75 HOH   0.0000 
225 H2     -13.5893    11.3558    50.3579 H      75 HOH   0.0000 
226 O       -0.1812    13.0560    38.2202 O.3    76 HOH   0.0000 
227 H1       0.7788    13.0560    38.2202 H      76 HOH   0.0000 
228 H2      -0.4714    13.7030    38.8673 H      76 HOH   0.0000 
229 O        8.5189    28.9080    56.1201 O.3    77 HOH   0.0000 
230 H1       9.4789    28.9080    56.1201 H      77 HOH   0.0000 
231 H2       8.2286    29.5550    56.7671 H      77 HOH   0.0000 
232 O        2.1599    15.6855    30.4627 O.3    78 HOH   0.0000 
233 H1       3.1199    15.6855    30.4627 H      78 HOH   0.0000 
234 H2       1.8697    16.3325    31.1098 H      78 HOH   0.0000 
235 O      -13.2468    23.4094    19.1111 O.3    79 HOH   0.0000 
236 H1     -12.2868    23.4094    19.1111 H      79 HOH   0.0000 
237 H2     -13.5371    24.0565    19.7581 H      79 HOH   0.0000 
238 O      -19.9362    27.7131    27.1252 O.3    80 HOH   0.0000 
239 H1     -18.9762    27.7131    27.1252 H      80 HOH   0.0000 
240 H2     -20.2265    28.3602    27.7722 H      80 HOH   0.0000 
241 O       -2.2067    18.1110    51.1173 O.3    81 HOH   0.0000 
242 H1      -1.2467    18.1110    51.1173 H      81 HOH   0.0000 
243 H2      -2.4970    18.7581    51.7644 H      81 HOH   0.0000 
244 O      -21.0792     8.2958    40.9923 O.3    82 HOH  -0.8340 
245 H1     -21.5499     7.5922    41.4391 H      82 HOH   0.4170 
246 H2     -20.2460     8.3612    41.4589 H      82 HOH   0.4170 
247 O       -3.9632    14.9215    22.9640 O.3    83 HOH   0.0000 
248 H1      -3.0032    14.9215    22.9640 H      83 HOH   0.0000 
249 H2      -4.2534    15.5685    23.6110 H      83 HOH   0.0000 
250 O       13.7691    29.6771    48.2476 O.3    84 HOH   0.0000 
251 H1      14.7291    29.6771    48.2476 H      84 HOH   0.0000 
252 H2      13.4789    30.3242    48.8947 H      84 HOH   0.0000 
253 O      -10.8038     2.6487    40.2887 O.3    85 HOH   0.0000 
254 H1      -9.8438     2.6487    40.2887 H      85 HOH   0.0000 
255 H2     -11.0940     3.2958    40.9358 H      85 HOH   0.0000 
256 O       -5.3994    -8.2059    25.4937 O.3    86 HOH   0.0000 
257 H1      -4.4394    -8.2059    25.4937 H      86 HOH   0.0000 
258 H2      -5.6897    -7.5589    26.1408 H      86 HOH   0.0000 
259 O       -2.6106     3.6865    35.6598 O.3    87 HOH   0.0000 
260 H1      -1.6506     3.6865    35.6598 H      87 HOH   0.0000 
261 H2      -2.9009     4.3335    36.3069 H      87 HOH   0.0000 
262 O      -15.6078    -0.5129    26.9348 O.3    88 HOH   0.0000 
263 H1     -14.6478    -0.5129    26.9348 H      88 HOH   0.0000 
264 H2     -15.8981     0.1342    27.5818 H      88 HOH   0.0000 
265 O       -3.1475    34.3143    52.6725 O.3    89 HOH   0.0000 
266 H1      -2.1875    34.3143    52.6725 H      89 HOH   0.0000 
267 H2      -3.4378    34.9614    53.3195 H      89 HOH   0.0000 
268 O       -6.5374    17.4691    15.3900 O.3    90 HOH   0.0000 
269 H1      -5.5774    17.4691    15.3900 H      90 HOH   0.0000 
270 H2      -6.8277    18.1161    16.0371 H      90 HOH   0.0000 
271 O       -7.7377     0.0325    35.7791 O.3    91 HOH   0.0000 
272 H1      -6.7777     0.0325    35.7791 H      91 HOH   0.0000 
273 H2      -8.0280     0.6796    36.4261 H      91 HOH   0.0000 
274 O      -16.4182     4.2273    48.4300 O.3    92 HOH   0.0000 
275 H1     -15.4582     4.2273    48.4300 H      92 HOH   0.0000 
276 H2     -16.7085     4.8744    49.0771 H      92 HOH   0.0000 
277 O        4.1683    35.5295    27.9941 O.3    93 HOH   0.0000 
278 H1       5.1283    35.5295    27.9941 H      93 HOH   0.0000 
279 H2       3.8780    36.1766    28.6412 H      93 HOH   0.0000 
280 O      -18.4307    -0.1314    33.5354 O.3    94 HOH   0.0000 
281 H1     -17.4707    -0.1314    33.5354 H      94 HOH   0.0000 
282 H2     -18.7210     0.5156    34.1824 H      94 HOH   0.0000 
283 O        4.5505    10.3272    37.3885 O.3    95 HOH   0.0000 
284 H1       5.5105    10.3272    37.3885 H      95 HOH   0.0000 
285 H2       4.2603    10.9742    38.0356 H      95 HOH   0.0000 
286 O        9.1684    18.2876    36.0272 O.3    96 HOH   0.0000 
287 H1      10.1284    18.2876    36.0272 H      96 HOH   0.0000 
288 H2       8.8781    18.9346    36.6743 H      96 HOH   0.0000 
289 O       -1.5430    12.6240    22.7450 O.3    97 HOH   0.0000 
290 H1      -0.5830    12.6240    22.7450 H      97 HOH   0.0000 
291 H2      -1.8333    13.2710    23.3920 H      97 HOH   0.0000 
292 O        0.5022    13.7217    23.7016 O.3    98 HOH   0.0000 
293 H1       1.4622    13.7217    23.7016 H      98 HOH   0.0000 
294 H2       0.2119    14.3687    24.3486 H      98 HOH   0.0000 
295 O       14.1596    27.5186    51.3734 O.3    99 HOH   0.0000 
296 H1      15.1196    27.5186    51.3734 H      99 HOH   0.0000 
297 H2      13.8693    28.1657    52.0205 H      99 HOH   0.0000 
298 O       -9.0585    10.1589    47.3463 O.3   100 HOH   0.0000 
299 H1      -8.0985    10.1589    47.3463 H     100 HOH   0.0000 
300 H2      -9.3487    10.8059    47.9934 H     100 HOH   0.0000 
301 O       -2.7202    -6.3218    15.0165 O.3   101 HOH   0.0000 
302 H1      -1.7602    -6.3218    15.0165 H     101 HOH   0.0000 
303 H2      -3.0105    -5.6747    15.6636 H     101 HOH   0.0000 
304 O       -3.9720    -3.7522    14.9549 O.3   102 HOH   0.0000 
305 H1      -3.0120    -3.7522    14.9549 H     102 HOH   0.0000 
306 H2      -4.2623    -3.1051    15.6019 H     102 HOH   0.0000 
307 O       -4.2749     5.2821    43.5015 O.3   103 HOH   0.0000 
308 H1      -3.3149     5.2821    43.5015 H     103 HOH   0.0000 
309 H2      -4.5652     5.9292    44.1486 H     103 HOH   0.0000 
310 O       -4.0969    13.6244    20.4114 O.3   104 HOH   0.0000 
311 H1      -3.1369    13.6244    20.4114 H     104 HOH   0.0000 
312 H2      -4.3871    14.2715    21.0584 H     104 HOH   0.0000 
313 O       -6.2539    13.3527    21.9075 O.3   105 HOH   0.0000 
314 H1      -5.2939    13.3527    21.9075 H     105 HOH   0.0000 
315 H2      -6.5442    13.9997    22.5545 H     105 HOH   0.0000 
316 O      -16.6165    28.3763    31.2279 O.3   106 HOH   0.0000 
317 H1     -15.6565    28.3763    31.2279 H     106 HOH   0.0000 
318 H2     -16.9068    29.0233    31.8749 H     106 HOH   0.0000 
319 O      -25.1534    12.4538    43.3082 O.3   107 HOH   0.0000 
320 H1     -24.1934    12.4538    43.3082 H     107 HOH   0.0000 
321 H2     -25.4436    13.1008    43.9553 H     107 HOH   0.0000 
322 O        9.4947    13.0722    48.0614 O.3   108 HOH   0.0000 
323 H1      10.4547    13.0722    48.0614 H     108 HOH   0.0000 
324 H2       9.2044    13.7192    48.7085 H     108 HOH   0.0000 
325 O       15.5536    27.9854    47.5796 O.3   109 HOH   0.0000 
326 H1      16.5136    27.9854    47.5796 H     109 HOH   0.0000 
327 H2      15.2634    28.6324    48.2267 H     109 HOH   0.0000 
328 O      -18.9481     0.1455    16.8091 O.3   110 HOH   0.0000 
329 H1     -17.9881     0.1455    16.8091 H     110 HOH   0.0000 
330 H2     -19.2384     0.7926    17.4562 H     110 HOH   0.0000 
331 O       12.0894    17.6315    36.3624 O.3   111 HOH   0.0000 
332 H1      13.0494    17.6315    36.3624 H     111 HOH   0.0000 
333 H2      11.7991    18.2785    37.0094 H     111 HOH   0.0000 
334 O      -21.8391    11.5375    18.1991 O.3   112 HOH   0.0000 
335 H1     -20.8791    11.5375    18.1991 H     112 HOH   0.0000 
336 H2     -22.1294    12.1845    18.8462 H     112 HOH   0.0000 
337 O        2.8662    12.7762    24.9752 O.3   113 HOH   0.0000 
338 H1       3.8262    12.7762    24.9752 H     113 HOH   0.0000 
339 H2       2.5760    13.4233    25.6222 H     113 HOH   0.0000 
340 O       -5.4924    12.9325    47.9481 O.3   114 HOH   0.0000 
341 H1      -4.5324    12.9325    47.9481 H     114 HOH   0.0000 
342 H2      -5.7827    13.5796    48.5951 H     114 HOH   0.0000 
343 O       -1.4285     9.9825    38.2187 O.3   115 HOH   0.0000 
344 H1      -0.4685     9.9825    38.2187 H     115 HOH   0.0000 
345 H2      -1.7187    10.6295    38.8657 H     115 HOH   0.0000 
346 O      -23.9311     9.8399    48.0479 O.3   116 HOH   0.0000 
347 H1     -22.9711     9.8399    48.0479 H     116 HOH   0.0000 
348 H2     -24.2214    10.4869    48.6950 H     116 HOH   0.0000 
349 O      -17.0674     1.2406    36.2332 O.3   117 HOH  -0.8340 
350 H1     -17.5856     2.0379    36.1242 H     117 HOH   0.4170 
351 H2     -17.3825     0.8597    37.0529 H     117 HOH   0.4170 
352 O        5.2564    14.7922    28.6998 O.3   118 HOH   0.0000 
353 H1       6.2164    14.7922    28.6998 H     118 HOH   0.0000 
354 H2       4.9661    15.4393    29.3469 H     118 HOH   0.0000 
355 O      -12.3981    18.0408    47.3016 O.3   119 HOH   0.0000 
356 H1     -11.4381    18.0408    47.3016 H     119 HOH   0.0000 
357 H2     -12.6884    18.6879    47.9486 H     119 HOH   0.0000 
@<TRIPOS>BOND
  1   1   2  1   
  2   1   3  1   
  3   4   5  1   
  4   4   6  1   
  5   7   8  1   
  6   7   9  1   
  7  10  11  1   
  8  10  12  1   
  9  13  14  1   
 10  13  15  1   
 11  16  17  1   
 12  16  18  1   
 13  19  20  1   
 14  19  21  1   
 15  22  23  1   
 16  22  24  1   
 17  25  26  1   
 18  25  27  1   
 19  28  29  1   
 20  28  30  1   
 21  31  32  1   
 22  31  33  1   
 23  34  35  1   
 24  34  36  1   
 25  37  38  1   
 26  37  39  1   
 27  40  41  1   
 28  40  42  1   
 29  43  44  1   
 30  43  45  1   
 31  46  47  1   
 32  46  48  1   
 33  49  50  1   
 34  49  51  1   
 35  52  53  1   
 36  52  54  1   
 37  55  56  1   
 38  55  57  1   
 39  58  59  1   
 40  58  60  1   
 41  61  62  1   
 42  61  63  1   
 43  64  65  1   
 44  64  66  1   
 45  67  68  1   
 46  67  69  1   
 47  70  71  1   
 48  70  72  1   
 49  73  74  1   
 50  73  75  1   
 51  76  77  1   
 52  76  78  1   
 53  79  80  1   
 54  79  81  1   
 55  82  83  1   
 56  82  84  1   
 57  85  86  1   
 58  85  87  1   
 59  88  89  1   
 60  88  90  1   
 61  91  92  1   
 62  91  93  1   
 63  94  95  1   
 64  94  96  1   
 65  97  98  1   
 66  97  99  1   
 67 100 101  1   
 68 100 102  1   
 69 103 104  1   
 70 103 105  1   
 71 106 107  1   
 72 106 108  1   
 73 109 110  1   
 74 109 111  1   
 75 112 113  1   
 76 112 114  1   
 77 115 116  1   
 78 115 117  1   
 79 118 119  1   
 80 118 120  1   
 81 121 122  1   
 82 121 123  1   
 83 124 125  1   
 84 124 126  1   
 85 127 128  1   
 86 127 129  1   
 87 130 131  1   
 88 130 132  1   
 89 133 134  1   
 90 133 135  1   
 91 136 137  1   
 92 136 138  1   
 93 139 140  1   
 94 139 141  1   
 95 142 143  1   
 96 142 144  1   
 97 145 146  1   
 98 145 147  1   
 99 148 149  1   
100 148 150  1   
101 151 152  1   
102 151 153  1   
103 154 155  1   
104 154 156  1   
105 157 158  1   
106 157 159  1   
107 160 161  1   
108 160 162  1   
109 163 164  1   
110 163 165  1   
111 166 167  1   
112 166 168  1   
113 169 170  1   
114 169 171  1   
115 172 173  1   
116 172 174  1   
117 175 176  1   
118 175 177  1   
119 178 179  1   
120 178 180  1   
121 181 182  1   
122 181 183  1   
123 184 185  1   
124 184 186  1   
125 187 188  1   
126 187 189  1   
127 190 191  1   
128 190 192  1   
129 193 194  1   
130 193 195  1   
131 196 197  1   
132 196 198  1   
133 199 200  1   
134 199 201  1   
135 202 203  1   
136 202 204  1   
137 205 206  1   
138 205 207  1   
139 208 209  1   
140 208 210  1   
141 211 212  1   
142 211 213  1   
143 214 215  1   
144 214 216  1   
145 217 218  1   
146 217 219  1   
147 220 221  1   
148 220 222  1   
149 223 224  1   
150 223 225  1   
151 226 227  1   
152 226 228  1   
153 229 230  1   
154 229 231  1   
155 232 233  1   
156 232 234  1   
157 235 236  1   
158 235 237  1   
159 238 239  1   
160 238 240  1   
161 241 242  1   
162 241 243  1   
163 244 245  1   
164 244 246  1   
165 247 248  1   
166 247 249  1   
167 250 251  1   
168 250 252  1   
169 253 254  1   
170 253 255  1   
171 256 257  1   
172 256 258  1   
173 259 260  1   
174 259 261  1   
175 262 263  1   
176 262 264  1   
177 265 266  1   
178 265 267  1   
179 268 269  1   
180 268 270  1   
181 271 272  1   
182 271 273  1   
183 274 275  1   
184 274 276  1   
185 277 278  1   
186 277 279  1   
187 280 281  1   
188 280 282  1   
189 283 284  1   
190 283 285  1   
191 286 287  1   
192 286 288  1   
193 289 290  1   
194 289 291  1   
195 292 293  1   
196 292 294  1   
197 295 296  1   
198 295 297  1   
199 298 299  1   
200 298 300  1   
201 301 302  1   
202 301 303  1   
203 304 305  1   
204 304 306  1   
205 307 308  1   
206 307 309  1   
207 310 311  1   
208 310 312  1   
209 313 314  1   
210 313 315  1   
211 316 317  1   
212 316 318  1   
213 319 320  1   
214 319 321  1   
215 322 323  1   
216 322 324  1   
217 325 326  1   
218 325 327  1   
219 328 329  1   
220 328 330  1   
221 331 332  1   
222 331 333  1   
223 334 335  1   
224 334 336  1   
225 337 338  1   
226 337 339  1   
227 340 341  1   
228 340 342  1   
229 343 344  1   
230 343 345  1   
231 346 347  1   
232 346 348  1   
233 349 350  1   
234 349 351  1   
235 352 353  1   
236 352 354  1   
237 355 356  1   
238 355 357  1   
@<TRIPOS>SUBSTRUCTURE
  1 HOH   1 GROUP 4 A **** 0
  2 HOH   4 GROUP 4 A **** 0
  3 HOH   7 GROUP 4 A **** 0
  4 HOH  10 GROUP 4 A **** 0
  5 HOH  13 GROUP 4 A **** 0
  6 HOH  16 GROUP 4 A **** 0
  7 HOH  19 GROUP 4 A **** 0
  8 HOH  22 GROUP 4 A **** 0
  9 HOH  25 GROUP 4 A **** 0
 10 HOH  28 GROUP 4 A **** 0
 11 HOH  31 GROUP 4 A **** 0
 12 HOH  34 GROUP 4 A **** 0
 13 HOH  37 GROUP 4 A **** 0
 14 HOH  40 GROUP 4 A **** 0
 15 HOH  43 GROUP 4 A **** 0
 16 HOH  46 GROUP 4 A **** 0
 17 HOH  49 GROUP 4 A **** 0
 18 HOH  52 GROUP 4 A **** 0
 19 HOH  55 GROUP 4 A **** 0
 20 HOH  58 GROUP 4 A **** 0
 21 HOH  61 GROUP 4 A **** 0
 22 HOH  64 GROUP 4 A **** 0
 23 HOH  67 GROUP 4 A **** 0
 24 HOH  70 GROUP 4 A **** 0
 25 HOH  73 GROUP 4 A **** 0
 26 HOH  76 GROUP 4 A **** 0
 27 HOH  79 GROUP 4 A **** 0
 28 HOH  82 GROUP 4 A **** 0
 29 HOH  85 GROUP 4 A **** 0
 30 HOH  88 GROUP 4 A **** 0
 31 HOH  91 GROUP 4 A **** 0
 32 HOH  94 GROUP 4 A **** 0
 33 HOH  97 GROUP 4 A **** 0
 34 HOH 100 GROUP 4 A **** 0
 35 HOH 103 GROUP 4 A **** 0
 36 HOH 106 GROUP 4 A **** 0
 37 HOH 109 GROUP 4 A **** 0
 38 HOH 112 GROUP 4 A **** 0
 39 HOH 115 GROUP 4 A **** 0
 40 HOH 118 GROUP 4 A **** 0
 41 HOH 121 GROUP 4 A **** 0
 42 HOH 124 GROUP 4 A **** 0
 43 HOH 127 GROUP 4 A **** 0
 44 HOH 130 GROUP 4 A **** 0
 45 HOH 133 GROUP 4 A **** 0
 46 HOH 136 GROUP 4 A **** 0
 47 HOH 139 GROUP 4 A **** 0
 48 HOH 142 GROUP 4 A **** 0
 49 HOH 145 GROUP 4 A **** 0
 50 HOH 148 GROUP 4 A **** 0
 51 HOH 151 GROUP 4 A **** 0
 52 HOH 154 GROUP 4 A **** 0
 53 HOH 157 GROUP 4 A **** 0
 54 HOH 160 GROUP 4 A **** 0
 55 HOH 163 GROUP 4 A **** 0
 56 HOH 166 GROUP 4 A **** 0
 57 HOH 169 GROUP 4 A **** 0
 58 HOH 172 GROUP 4 A **** 0
 59 HOH 175 GROUP 4 A **** 0
 60 HOH 178 GROUP 4 A **** 0
 61 HOH 181 GROUP 4 A **** 0
 62 HOH 184 GROUP 4 A **** 0
 63 HOH 187 GROUP 4 A **** 0
 64 HOH 190 GROUP 4 A **** 0
 65 HOH 193 GROUP 4 A **** 0
 66 HOH 196 GROUP 4 A **** 0
 67 HOH 199 GROUP 4 A **** 0
 68 HOH 202 GROUP 4 A **** 0
 69 HOH 205 GROUP 4 A **** 0
 70 HOH 208 GROUP 4 A **** 0
 71 HOH 211 GROUP 4 A **** 0
 72 HOH 214 GROUP 4 A **** 0
 73 HOH 217 GROUP 4 A **** 0
 74 HOH 220 GROUP 4 A **** 0
 75 HOH 223 GROUP 4 A **** 0
 76 HOH 226 GROUP 4 A **** 0
 77 HOH 229 GROUP 4 A **** 0
 78 HOH 232 GROUP 4 A **** 0
 79 HOH 235 GROUP 4 A **** 0
 80 HOH 238 GROUP 4 A **** 0
 81 HOH 241 GROUP 4 A **** 0
 82 HOH 244 GROUP 4 A **** 0
 83 HOH 247 GROUP 4 A **** 0
 84 HOH 250 GROUP 4 A **** 0
 85 HOH 253 GROUP 4 A **** 0
 86 HOH 256 GROUP 4 A **** 0
 87 HOH 259 GROUP 4 A **** 0
 88 HOH 262 GROUP 4 A **** 0
 89 HOH 265 GROUP 4 A **** 0
 90 HOH 268 GROUP 4 A **** 0
 91 HOH 271 GROUP 4 A **** 0
 92 HOH 274 GROUP 4 A **** 0
 93 HOH 277 GROUP 4 A **** 0
 94 HOH 280 GROUP 4 A **** 0
 95 HOH 283 GROUP 4 A **** 0
 96 HOH 286 GROUP 4 A **** 0
 97 HOH 289 GROUP 4 A **** 0
 98 HOH 292 GROUP 4 A **** 0
 99 HOH 295 GROUP 4 A **** 0
100 HOH 298 GROUP 4 A **** 0
101 HOH 301 GROUP 4 A **** 0
102 HOH 304 GROUP 4 A **** 0
103 HOH 307 GROUP 4 A **** 0
104 HOH 310 GROUP 4 A **** 0
105 HOH 313 GROUP 4 A **** 0
106 HOH 316 GROUP 4 A **** 0
107 HOH 319 GROUP 4 A **** 0
108 HOH 322 GROUP 4 A **** 0
109 HOH 325 GROUP 4 A **** 0
110 HOH 328 GROUP 4 A **** 0
111 HOH 331 GROUP 4 A **** 0
112 HOH 334 GROUP 4 A **** 0
113 HOH 337 GROUP 4 A **** 0
114 HOH 340 GROUP 4 A **** 0
115 HOH 343 GROUP 4 A **** 0
116 HOH 346 GROUP 4 A **** 0
117 HOH 349 GROUP 4 A **** 0
118 HOH 352 GROUP 4 A **** 0
119 HOH 355 GROUP 4 A **** 0

# MOE 2012.10 (io_trps.svl 2012.10)
