@<TRIPOS>MOLECULE
2g1t.B
591 394 197 0 0 
SMALL
USER_CHARGES


@<TRIPOS>ATOM
  1 O       -3.2706    15.6709    25.8107 O.3     1 HOH   0.0000 
  2 H1      -2.3106    15.6709    25.8107 H       1 HOH   0.0000 
  3 H2      -3.5608    16.3180    26.4577 H       1 HOH   0.0000 
  4 O       -6.2888     9.8344    34.2419 O.3     2 HOH   0.0000 
  5 H1      -5.3288     9.8344    34.2419 H       2 HOH   0.0000 
  6 H2      -6.5791    10.4814    34.8889 H       2 HOH   0.0000 
  7 O       -4.5146     7.6278    34.7492 O.3     3 HOH   0.0000 
  8 H1      -3.5546     7.6278    34.7492 H       3 HOH   0.0000 
  9 H2      -4.8049     8.2748    35.3963 H       3 HOH   0.0000 
 10 O        3.4726    17.1152    28.2904 O.3     4 HOH  -0.8340 
 11 H1       2.7032    17.6212    28.0291 H       4 HOH   0.4170 
 12 H2       3.1209    16.4010    28.8218 H       4 HOH   0.4170 
 13 O      -13.4977    12.6498    11.1082 O.3     5 HOH   0.0000 
 14 H1     -12.5377    12.6498    11.1082 H       5 HOH   0.0000 
 15 H2     -13.7879    13.2968    11.7552 H       5 HOH   0.0000 
 16 O        2.3974    15.9561    32.0549 O.3     6 HOH  -0.8340 
 17 H1       2.7775    15.7393    31.2035 H       6 HOH   0.4170 
 18 H2       2.2397    16.8994    32.0141 H       6 HOH   0.4170 
 19 O       -3.0251    15.9282    15.7859 O.3     7 HOH   0.0000 
 20 H1      -2.0651    15.9282    15.7859 H       7 HOH   0.0000 
 21 H2      -3.3154    16.5752    16.4329 H       7 HOH   0.0000 
 22 O       -9.0821     6.5455    34.0620 O.3     8 HOH   0.0000 
 23 H1      -8.1221     6.5455    34.0620 H       8 HOH   0.0000 
 24 H2      -9.3723     7.1925    34.7090 H       8 HOH   0.0000 
 25 O        1.6254    20.8833    39.4917 O.3     9 HOH  -0.8340 
 26 H1       1.0205    20.6261    40.1875 H       9 HOH   0.4170 
 27 H2       2.1241    21.6106    39.8640 H       9 HOH   0.4170 
 28 O       -4.5004    12.5315    22.4296 O.3    10 HOH   0.0000 
 29 H1      -3.5404    12.5315    22.4296 H      10 HOH   0.0000 
 30 H2      -4.7907    13.1785    23.0766 H      10 HOH   0.0000 
 31 O       -8.6551     7.0531    23.1408 O.3    11 HOH   0.0000 
 32 H1      -7.6951     7.0531    23.1408 H      11 HOH   0.0000 
 33 H2      -8.9454     7.7001    23.7879 H      11 HOH   0.0000 
 34 O       -4.3165    29.2107    38.6450 O.3    12 HOH   0.0000 
 35 H1      -3.3565    29.2107    38.6450 H      12 HOH   0.0000 
 36 H2      -4.6068    29.8578    39.2920 H      12 HOH   0.0000 
 37 O      -10.3437    30.3269    28.9924 O.3    13 HOH   0.0000 
 38 H1      -9.3837    30.3269    28.9924 H      13 HOH   0.0000 
 39 H2     -10.6340    30.9739    29.6395 H      13 HOH   0.0000 
 40 O       -3.5621     3.6469    27.9196 O.3    14 HOH   0.0000 
 41 H1      -2.6021     3.6469    27.9196 H      14 HOH   0.0000 
 42 H2      -3.8524     4.2940    28.5666 H      14 HOH   0.0000 
 43 O       16.6645     9.3368    23.6531 O.3    15 HOH   0.0000 
 44 H1      17.6245     9.3368    23.6531 H      15 HOH   0.0000 
 45 H2      16.3743     9.9838    24.3001 H      15 HOH   0.0000 
 46 O        3.1114    23.8228    22.0916 O.3    16 HOH   0.0000 
 47 H1       4.0714    23.8228    22.0916 H      16 HOH   0.0000 
 48 H2       2.8212    24.4698    22.7387 H      16 HOH   0.0000 
 49 O       -2.9012    12.0853    28.0484 O.3    17 HOH   0.0000 
 50 H1      -1.9412    12.0853    28.0484 H      17 HOH   0.0000 
 51 H2      -3.1915    12.7323    28.6955 H      17 HOH   0.0000 
 52 O       -2.2036    29.7240    35.6292 O.3    18 HOH   0.0000 
 53 H1      -1.2436    29.7240    35.6292 H      18 HOH   0.0000 
 54 H2      -2.4938    30.3711    36.2763 H      18 HOH   0.0000 
 55 O        2.3239    29.1827    34.9931 O.3    19 HOH   0.0000 
 56 H1       3.2839    29.1827    34.9931 H      19 HOH   0.0000 
 57 H2       2.0336    29.8298    35.6401 H      19 HOH   0.0000 
 58 O      -14.7232     9.9029    12.6816 O.3    20 HOH   0.0000 
 59 H1     -13.7632     9.9029    12.6816 H      20 HOH   0.0000 
 60 H2     -15.0135    10.5499    13.3287 H      20 HOH   0.0000 
 61 O        1.3182    21.8450    36.7862 O.3    21 HOH  -0.8340 
 62 H1       1.8948    21.4278    37.4262 H      21 HOH   0.4170 
 63 H2       1.4053    22.7823    36.9597 H      21 HOH   0.4170 
 64 O       -1.7822    16.1369    22.4204 O.3    22 HOH   0.0000 
 65 H1      -0.8222    16.1369    22.4204 H      22 HOH   0.0000 
 66 H2      -2.0725    16.7840    23.0675 H      22 HOH   0.0000 
 67 O      -12.7949     6.4714    12.9133 O.3    23 HOH   0.0000 
 68 H1     -11.8349     6.4714    12.9133 H      23 HOH   0.0000 
 69 H2     -13.0852     7.1184    13.5604 H      23 HOH   0.0000 
 70 O       -6.2975     5.9926    21.8899 O.3    24 HOH   0.0000 
 71 H1      -5.3375     5.9926    21.8899 H      24 HOH   0.0000 
 72 H2      -6.5878     6.6397    22.5369 H      24 HOH   0.0000 
 73 O       -4.4778    -1.8426    17.1036 O.3    25 HOH   0.0000 
 74 H1      -3.5178    -1.8426    17.1036 H      25 HOH   0.0000 
 75 H2      -4.7681    -1.1955    17.7507 H      25 HOH   0.0000 
 76 O       -3.3361     0.3823    19.8092 O.3    26 HOH   0.0000 
 77 H1      -2.3761     0.3823    19.8092 H      26 HOH   0.0000 
 78 H2      -3.6263     1.0293    20.4562 H      26 HOH   0.0000 
 79 O      -10.7378    22.5045    12.0166 O.3    27 HOH   0.0000 
 80 H1      -9.7778    22.5045    12.0166 H      27 HOH   0.0000 
 81 H2     -11.0281    23.1515    12.6637 H      27 HOH   0.0000 
 82 O        5.5065    21.0681    40.7713 O.3    28 HOH  -0.8340 
 83 H1       5.3163    20.3370    40.1834 H      28 HOH   0.4170 
 84 H2       5.9557    20.6671    41.5154 H      28 HOH   0.4170 
 85 O       23.6270    14.9538    27.2706 O.3    29 HOH   0.0000 
 86 H1      24.5870    14.9538    27.2706 H      29 HOH   0.0000 
 87 H2      23.3368    15.6008    27.9177 H      29 HOH   0.0000 
 88 O        3.3588    31.8226    36.5296 O.3    30 HOH   0.0000 
 89 H1       4.3188    31.8226    36.5296 H      30 HOH   0.0000 
 90 H2       3.0686    32.4697    37.1766 H      30 HOH   0.0000 
 91 O        0.2598    35.8055    30.5879 O.3    31 HOH   0.0000 
 92 H1       1.2198    35.8055    30.5879 H      31 HOH   0.0000 
 93 H2      -0.0305    36.4525    31.2349 H      31 HOH   0.0000 
 94 O       -7.5071    13.1991    44.9556 O.3    32 HOH   0.0000 
 95 H1      -6.5471    13.1991    44.9556 H      32 HOH   0.0000 
 96 H2      -7.7974    13.8461    45.6027 H      32 HOH   0.0000 
 97 O       -9.0282    29.1003    22.3481 O.3    33 HOH   0.0000 
 98 H1      -8.0682    29.1003    22.3481 H      33 HOH   0.0000 
 99 H2      -9.3185    29.7473    22.9951 H      33 HOH   0.0000 
100 O        0.8600    26.6134    46.5491 O.3    34 HOH   0.0000 
101 H1       1.8200    26.6134    46.5491 H      34 HOH   0.0000 
102 H2       0.5698    27.2605    47.1961 H      34 HOH   0.0000 
103 O       -8.6463    -7.3117    18.1781 O.3    35 HOH   0.0000 
104 H1      -7.6863    -7.3117    18.1781 H      35 HOH   0.0000 
105 H2      -8.9366    -6.6647    18.8252 H      35 HOH   0.0000 
106 O       -2.0415    12.2332    38.9700 O.3    36 HOH  -0.8340 
107 H1      -2.2423    12.7546    38.1929 H      36 HOH   0.4170 
108 H2      -2.4588    11.3875    38.8060 H      36 HOH   0.4170 
109 O      -16.5345    18.4800     9.7879 O.3    37 HOH   0.0000 
110 H1     -15.5745    18.4800     9.7879 H      37 HOH   0.0000 
111 H2     -16.8248    19.1270    10.4350 H      37 HOH   0.0000 
112 O      -13.5738     6.2594    22.2638 O.3    38 HOH   0.0000 
113 H1     -12.6138     6.2594    22.2638 H      38 HOH   0.0000 
114 H2     -13.8641     6.9064    22.9109 H      38 HOH   0.0000 
115 O       -1.4147    22.5852    17.3789 O.3    39 HOH   0.0000 
116 H1      -0.4547    22.5852    17.3789 H      39 HOH   0.0000 
117 H2      -1.7050    23.2323    18.0260 H      39 HOH   0.0000 
118 O       15.2380    18.1683    32.1905 O.3    40 HOH   0.0000 
119 H1      16.1980    18.1683    32.1905 H      40 HOH   0.0000 
120 H2      14.9477    18.8153    32.8375 H      40 HOH   0.0000 
121 O      -13.3321    20.3356    46.7068 O.3    41 HOH   0.0000 
122 H1     -12.3721    20.3356    46.7068 H      41 HOH   0.0000 
123 H2     -13.6224    20.9826    47.3539 H      41 HOH   0.0000 
124 O      -10.3009    -4.0805    15.3578 O.3    42 HOH   0.0000 
125 H1      -9.3409    -4.0805    15.3578 H      42 HOH   0.0000 
126 H2     -10.5912    -3.4334    16.0048 H      42 HOH   0.0000 
127 O        9.7345    14.1166    27.1730 O.3    43 HOH   0.0000 
128 H1      10.6945    14.1166    27.1730 H      43 HOH   0.0000 
129 H2       9.4442    14.7637    27.8201 H      43 HOH   0.0000 
130 O       26.2510    17.6266    38.2003 O.3    44 HOH   0.0000 
131 H1      27.2110    17.6266    38.2003 H      44 HOH   0.0000 
132 H2      25.9607    18.2737    38.8473 H      44 HOH   0.0000 
133 O        4.3487    21.2686    35.9766 O.3    45 HOH  -0.8340 
134 H1       4.6739    21.2687    35.0764 H      45 HOH   0.4170 
135 H2       3.5675    20.7161    35.9495 H      45 HOH   0.4170 
136 O        3.3878    31.5786    27.6219 O.3    46 HOH   0.0000 
137 H1       4.3478    31.5786    27.6219 H      46 HOH   0.0000 
138 H2       3.0975    32.2256    28.2690 H      46 HOH   0.0000 
139 O       20.9002    16.2505    24.5578 O.3    47 HOH   0.0000 
140 H1      21.8602    16.2505    24.5578 H      47 HOH   0.0000 
141 H2      20.6099    16.8975    25.2048 H      47 HOH   0.0000 
142 O      -11.8671     0.8958    36.0563 O.3    48 HOH   0.0000 
143 H1     -10.9071     0.8958    36.0563 H      48 HOH   0.0000 
144 H2     -12.1574     1.5429    36.7034 H      48 HOH   0.0000 
145 O      -14.8975    -2.5876    26.4091 O.3    49 HOH   0.0000 
146 H1     -13.9375    -2.5876    26.4091 H      49 HOH   0.0000 
147 H2     -15.1878    -1.9405    27.0562 H      49 HOH   0.0000 
148 O        0.7641    33.0727    27.9710 O.3    50 HOH   0.0000 
149 H1       1.7241    33.0727    27.9710 H      50 HOH   0.0000 
150 H2       0.4738    33.7198    28.6181 H      50 HOH   0.0000 
151 O       19.0359    16.3492    34.5989 O.3    51 HOH   0.0000 
152 H1      19.9959    16.3492    34.5989 H      51 HOH   0.0000 
153 H2      18.7456    16.9963    35.2460 H      51 HOH   0.0000 
154 O      -32.3223    22.7058    40.7695 O.3    52 HOH   0.0000 
155 H1     -31.3623    22.7058    40.7695 H      52 HOH   0.0000 
156 H2     -32.6126    23.3528    41.4166 H      52 HOH   0.0000 
157 O       -6.4993    10.6387    12.7063 O.3    53 HOH   0.0000 
158 H1      -5.5393    10.6387    12.7063 H      53 HOH   0.0000 
159 H2      -6.7896    11.2857    13.3533 H      53 HOH   0.0000 
160 O       -2.2847    13.6834    23.8432 O.3    54 HOH   0.0000 
161 H1      -1.3247    13.6834    23.8432 H      54 HOH   0.0000 
162 H2      -2.5750    14.3305    24.4903 H      54 HOH   0.0000 
163 O       -3.3933     7.1225    37.3859 O.3    55 HOH  -0.8340 
164 H1      -3.5097     7.9698    37.8158 H      55 HOH   0.4170 
165 H2      -3.1355     6.5290    38.0912 H      55 HOH   0.4170 
166 O       -3.3867    17.7843    13.3382 O.3    56 HOH   0.0000 
167 H1      -2.4267    17.7843    13.3382 H      56 HOH   0.0000 
168 H2      -3.6770    18.4313    13.9853 H      56 HOH   0.0000 
169 O       -8.6151    32.2739    27.7246 O.3    57 HOH   0.0000 
170 H1      -7.6551    32.2739    27.7246 H      57 HOH   0.0000 
171 H2      -8.9054    32.9209    28.3716 H      57 HOH   0.0000 
172 O      -17.2929    18.6849    12.6664 O.3    58 HOH   0.0000 
173 H1     -16.3329    18.6849    12.6664 H      58 HOH   0.0000 
174 H2     -17.5831    19.3320    13.3134 H      58 HOH   0.0000 
175 O        5.2380     9.4399    22.4568 O.3    59 HOH   0.0000 
176 H1       6.1980     9.4399    22.4568 H      59 HOH   0.0000 
177 H2       4.9478    10.0870    23.1038 H      59 HOH   0.0000 
178 O       -0.8127    11.5362    30.0694 O.3    60 HOH   0.0000 
179 H1       0.1473    11.5362    30.0694 H      60 HOH   0.0000 
180 H2      -1.1029    12.1833    30.7164 H      60 HOH   0.0000 
181 O       -8.3212    23.7782    17.8560 O.3    61 HOH   0.0000 
182 H1      -7.3612    23.7782    17.8560 H      61 HOH   0.0000 
183 H2      -8.6115    24.4252    18.5030 H      61 HOH   0.0000 
184 O      -15.5623    29.5453    24.4975 O.3    62 HOH   0.0000 
185 H1     -14.6023    29.5453    24.4975 H      62 HOH   0.0000 
186 H2     -15.8526    30.1924    25.1445 H      62 HOH   0.0000 
187 O      -21.2960    14.1977    18.2204 O.3    63 HOH   0.0000 
188 H1     -20.3360    14.1977    18.2204 H      63 HOH   0.0000 
189 H2     -21.5863    14.8448    18.8674 H      63 HOH   0.0000 
190 O      -15.0397     0.3735    25.4922 O.3    64 HOH   0.0000 
191 H1     -14.0797     0.3735    25.4922 H      64 HOH   0.0000 
192 H2     -15.3300     1.0205    26.1393 H      64 HOH   0.0000 
193 O       21.1291    13.3209    24.6111 O.3    65 HOH   0.0000 
194 H1      22.0891    13.3209    24.6111 H      65 HOH   0.0000 
195 H2      20.8388    13.9680    25.2581 H      65 HOH   0.0000 
196 O      -16.2208    28.8793    32.4772 O.3    66 HOH   0.0000 
197 H1     -15.2608    28.8793    32.4772 H      66 HOH   0.0000 
198 H2     -16.5111    29.5263    33.1243 H      66 HOH   0.0000 
199 O       11.7564    20.1269    24.3681 O.3    67 HOH   0.0000 
200 H1      12.7164    20.1269    24.3681 H      67 HOH   0.0000 
201 H2      11.4661    20.7739    25.0151 H      67 HOH   0.0000 
202 O      -16.5486    13.9038    48.4879 O.3    68 HOH   0.0000 
203 H1     -15.5886    13.9038    48.4879 H      68 HOH   0.0000 
204 H2     -16.8389    14.5508    49.1350 H      68 HOH   0.0000 
205 O       15.8640    17.1242    35.0695 O.3    69 HOH   0.0000 
206 H1      16.8240    17.1242    35.0695 H      69 HOH   0.0000 
207 H2      15.5737    17.7713    35.7165 H      69 HOH   0.0000 
208 O       -4.3144    -0.6854    10.9895 O.3    70 HOH   0.0000 
209 H1      -3.3544    -0.6854    10.9895 H      70 HOH   0.0000 
210 H2      -4.6047    -0.0384    11.6366 H      70 HOH   0.0000 
211 O      -19.0785    10.0569    15.4974 O.3    71 HOH   0.0000 
212 H1     -18.1185    10.0569    15.4974 H      71 HOH   0.0000 
213 H2     -19.3688    10.7040    16.1444 H      71 HOH   0.0000 
214 O      -29.5941    13.3987    28.2448 O.3    72 HOH   0.0000 
215 H1     -28.6341    13.3987    28.2448 H      72 HOH   0.0000 
216 H2     -29.8844    14.0457    28.8919 H      72 HOH   0.0000 
217 O       23.0997    22.5061    31.1125 O.3    73 HOH   0.0000 
218 H1      24.0597    22.5061    31.1125 H      73 HOH   0.0000 
219 H2      22.8094    23.1532    31.7595 H      73 HOH   0.0000 
220 O       -8.1681    -7.1532    24.6609 O.3    74 HOH   0.0000 
221 H1      -7.2081    -7.1532    24.6609 H      74 HOH   0.0000 
222 H2      -8.4584    -6.5061    25.3079 H      74 HOH   0.0000 
223 O       15.7410    11.5932    31.1774 O.3    75 HOH   0.0000 
224 H1      16.7010    11.5932    31.1774 H      75 HOH   0.0000 
225 H2      15.4507    12.2403    31.8244 H      75 HOH   0.0000 
226 O       -2.4661    -2.1536    14.9430 O.3    76 HOH   0.0000 
227 H1      -1.5061    -2.1536    14.9430 H      76 HOH   0.0000 
228 H2      -2.7563    -1.5066    15.5900 H      76 HOH   0.0000 
229 O       -6.2269     3.0299    32.6158 O.3    77 HOH   0.0000 
230 H1      -5.2669     3.0299    32.6158 H      77 HOH   0.0000 
231 H2      -6.5172     3.6769    33.2628 H      77 HOH   0.0000 
232 O       10.8740    12.4715    29.5179 O.3    78 HOH   0.0000 
233 H1      11.8340    12.4715    29.5179 H      78 HOH   0.0000 
234 H2      10.5837    13.1185    30.1650 H      78 HOH   0.0000 
235 O       10.9112    16.9727    24.7379 O.3    79 HOH   0.0000 
236 H1      11.8712    16.9727    24.7379 H      79 HOH   0.0000 
237 H2      10.6209    17.6197    25.3849 H      79 HOH   0.0000 
238 O        5.6793    25.2740    24.7881 O.3    80 HOH   0.0000 
239 H1       6.6393    25.2740    24.7881 H      80 HOH   0.0000 
240 H2       5.3890    25.9211    25.4351 H      80 HOH   0.0000 
241 O      -10.9604     5.6252    10.2019 O.3    81 HOH   0.0000 
242 H1     -10.0004     5.6252    10.2019 H      81 HOH   0.0000 
243 H2     -11.2506     6.2722    10.8490 H      81 HOH   0.0000 
244 O       -7.6152    30.4194    19.7674 O.3    82 HOH   0.0000 
245 H1      -6.6552    30.4194    19.7674 H      82 HOH   0.0000 
246 H2      -7.9054    31.0664    20.4144 H      82 HOH   0.0000 
247 O       12.6369    11.8990    40.8920 O.3    83 HOH   0.0000 
248 H1      13.5969    11.8990    40.8920 H      83 HOH   0.0000 
249 H2      12.3466    12.5461    41.5391 H      83 HOH   0.0000 
250 O      -29.9020    21.2815    39.0829 O.3    84 HOH   0.0000 
251 H1     -28.9420    21.2815    39.0829 H      84 HOH   0.0000 
252 H2     -30.1923    21.9286    39.7300 H      84 HOH   0.0000 
253 O       22.8610    23.9310    35.9817 O.3    85 HOH   0.0000 
254 H1      23.8210    23.9310    35.9817 H      85 HOH   0.0000 
255 H2      22.5707    24.5781    36.6287 H      85 HOH   0.0000 
256 O       -8.9276    -4.2542    17.9882 O.3    86 HOH   0.0000 
257 H1      -7.9676    -4.2542    17.9882 H      86 HOH   0.0000 
258 H2      -9.2179    -3.6071    18.6353 H      86 HOH   0.0000 
259 O        0.2681    -5.1880    26.2605 O.3    87 HOH   0.0000 
260 H1       1.2281    -5.1880    26.2605 H      87 HOH   0.0000 
261 H2      -0.0221    -4.5410    26.9075 H      87 HOH   0.0000 
262 O      -18.9475    21.0987    13.9839 O.3    88 HOH   0.0000 
263 H1     -17.9875    21.0987    13.9839 H      88 HOH   0.0000 
264 H2     -19.2378    21.7457    14.6309 H      88 HOH   0.0000 
265 O      -13.4753    14.5602    49.2523 O.3    89 HOH   0.0000 
266 H1     -12.5153    14.5602    49.2523 H      89 HOH   0.0000 
267 H2     -13.7656    15.2073    49.8994 H      89 HOH   0.0000 
268 O        7.0612    16.3361    23.8394 O.3    90 HOH   0.0000 
269 H1       8.0212    16.3361    23.8394 H      90 HOH   0.0000 
270 H2       6.7710    16.9832    24.4864 H      90 HOH   0.0000 
271 O       11.1877     9.6998    39.3301 O.3    91 HOH   0.0000 
272 H1      12.1477     9.6998    39.3301 H      91 HOH   0.0000 
273 H2      10.8975    10.3469    39.9772 H      91 HOH   0.0000 
274 O      -23.4339    15.4656    34.5501 O.3    92 HOH   0.0000 
275 H1     -22.4739    15.4656    34.5501 H      92 HOH   0.0000 
276 H2     -23.7241    16.1126    35.1972 H      92 HOH   0.0000 
277 O       -5.8762    23.8057    16.1387 O.3    93 HOH   0.0000 
278 H1      -4.9162    23.8057    16.1387 H      93 HOH   0.0000 
279 H2      -6.1665    24.4527    16.7857 H      93 HOH   0.0000 
280 O       15.1672    16.7250    40.2993 O.3    94 HOH   0.0000 
281 H1      16.1272    16.7250    40.2993 H      94 HOH   0.0000 
282 H2      14.8769    17.3721    40.9463 H      94 HOH   0.0000 
283 O       -7.8150    16.5233     9.5172 O.3    95 HOH   0.0000 
284 H1      -6.8550    16.5233     9.5172 H      95 HOH   0.0000 
285 H2      -8.1053    17.1703    10.1643 H      95 HOH   0.0000 
286 O       -4.8853    20.4135    13.7431 O.3    96 HOH   0.0000 
287 H1      -3.9253    20.4135    13.7431 H      96 HOH   0.0000 
288 H2      -5.1756    21.0605    14.3902 H      96 HOH   0.0000 
289 O      -16.8260    17.8643    15.6891 O.3    97 HOH   0.0000 
290 H1     -15.8660    17.8643    15.6891 H      97 HOH   0.0000 
291 H2     -17.1163    18.5113    16.3362 H      97 HOH   0.0000 
292 O      -17.6413     1.4076    26.9013 O.3    98 HOH   0.0000 
293 H1     -16.6813     1.4076    26.9013 H      98 HOH   0.0000 
294 H2     -17.9315     2.0547    27.5484 H      98 HOH   0.0000 
295 O      -23.9708    18.6945    22.9636 O.3    99 HOH   0.0000 
296 H1     -23.0108    18.6945    22.9636 H      99 HOH   0.0000 
297 H2     -24.2610    19.3416    23.6107 H      99 HOH   0.0000 
298 O      -17.0448     7.7837    44.0212 O.3   100 HOH   0.0000 
299 H1     -16.0848     7.7837    44.0212 H     100 HOH   0.0000 
300 H2     -17.3350     8.4308    44.6682 H     100 HOH   0.0000 
301 O       16.6099     9.2917    34.6459 O.3   101 HOH   0.0000 
302 H1      17.5699     9.2917    34.6459 H     101 HOH   0.0000 
303 H2      16.3196     9.9387    35.2930 H     101 HOH   0.0000 
304 O       -3.0004     3.3363     9.5388 O.3   102 HOH   0.0000 
305 H1      -2.0404     3.3363     9.5388 H     102 HOH   0.0000 
306 H2      -3.2907     3.9833    10.1859 H     102 HOH   0.0000 
307 O       -1.6634    30.2140    41.4989 O.3   103 HOH   0.0000 
308 H1      -0.7034    30.2140    41.4989 H     103 HOH   0.0000 
309 H2      -1.9537    30.8610    42.1459 H     103 HOH   0.0000 
310 O       -7.5474    30.0251    40.3651 O.3   104 HOH   0.0000 
311 H1      -6.5874    30.0251    40.3651 H     104 HOH   0.0000 
312 H2      -7.8377    30.6722    41.0122 H     104 HOH   0.0000 
313 O      -12.7403    12.1775    46.9253 O.3   105 HOH   0.0000 
314 H1     -11.7803    12.1775    46.9253 H     105 HOH   0.0000 
315 H2     -13.0306    12.8245    47.5723 H     105 HOH   0.0000 
316 O      -14.7321     4.5690    40.1570 O.3   106 HOH   0.0000 
317 H1     -13.7721     4.5690    40.1570 H     106 HOH   0.0000 
318 H2     -15.0223     5.2161    40.8040 H     106 HOH   0.0000 
319 O      -24.4987    23.1066    24.8434 O.3   107 HOH   0.0000 
320 H1     -23.5387    23.1066    24.8434 H     107 HOH   0.0000 
321 H2     -24.7889    23.7536    25.4904 H     107 HOH   0.0000 
322 O      -16.2786     8.3523    14.9966 O.3   108 HOH   0.0000 
323 H1     -15.3186     8.3523    14.9966 H     108 HOH   0.0000 
324 H2     -16.5689     8.9994    15.6437 H     108 HOH   0.0000 
325 O        2.8349    23.4086    33.7640 O.3   109 HOH  -0.8340 
326 H1       2.1541    24.0758    33.8515 H     109 HOH   0.4170 
327 H2       2.6497    22.9855    32.9256 H     109 HOH   0.4170 
328 O       13.6536    25.4978    24.5746 O.3   110 HOH   0.0000 
329 H1      14.6136    25.4978    24.5746 H     110 HOH   0.0000 
330 H2      13.3633    26.1448    25.2216 H     110 HOH   0.0000 
331 O       12.7114    32.5306    46.7846 O.3   111 HOH   0.0000 
332 H1      13.6714    32.5306    46.7846 H     111 HOH   0.0000 
333 H2      12.4211    33.1776    47.4316 H     111 HOH   0.0000 
334 O       11.0625    31.5532    26.3168 O.3   112 HOH   0.0000 
335 H1      12.0225    31.5532    26.3168 H     112 HOH   0.0000 
336 H2      10.7723    32.2002    26.9638 H     112 HOH   0.0000 
337 O       16.5758    10.1702    37.6976 O.3   113 HOH   0.0000 
338 H1      17.5358    10.1702    37.6976 H     113 HOH   0.0000 
339 H2      16.2856    10.8173    38.3446 H     113 HOH   0.0000 
340 O       14.6557    20.5957    23.3371 O.3   114 HOH   0.0000 
341 H1      15.6157    20.5957    23.3371 H     114 HOH   0.0000 
342 H2      14.3654    21.2427    23.9842 H     114 HOH   0.0000 
343 O       -8.5167    10.9389     6.2133 O.3   115 HOH   0.0000 
344 H1      -7.5567    10.9389     6.2133 H     115 HOH   0.0000 
345 H2      -8.8069    11.5859     6.8604 H     115 HOH   0.0000 
346 O      -19.4805    14.7673    51.2704 O.3   116 HOH   0.0000 
347 H1     -18.5205    14.7673    51.2704 H     116 HOH   0.0000 
348 H2     -19.7708    15.4143    51.9174 H     116 HOH   0.0000 
349 O      -16.6936     9.7431    17.6163 O.3   117 HOH   0.0000 
350 H1     -15.7336     9.7431    17.6163 H     117 HOH   0.0000 
351 H2     -16.9839    10.3902    18.2633 H     117 HOH   0.0000 
352 O       -1.3127    11.3867    25.7681 O.3   118 HOH   0.0000 
353 H1      -0.3527    11.3867    25.7681 H     118 HOH   0.0000 
354 H2      -1.6030    12.0338    26.4151 H     118 HOH   0.0000 
355 O       23.2010    21.6543    33.9328 O.3   119 HOH   0.0000 
356 H1      24.1610    21.6543    33.9328 H     119 HOH   0.0000 
357 H2      22.9107    22.3014    34.5798 H     119 HOH   0.0000 
358 O       -4.1650    21.3040    16.5413 O.3   120 HOH   0.0000 
359 H1      -3.2050    21.3040    16.5413 H     120 HOH   0.0000 
360 H2      -4.4553    21.9510    17.1883 H     120 HOH   0.0000 
361 O       12.8265     1.1001    16.0375 O.3   121 HOH   0.0000 
362 H1      13.7865     1.1001    16.0375 H     121 HOH   0.0000 
363 H2      12.5363     1.7471    16.6845 H     121 HOH   0.0000 
364 O      -18.5580    19.9533    17.0710 O.3   122 HOH   0.0000 
365 H1     -17.5980    19.9533    17.0710 H     122 HOH   0.0000 
366 H2     -18.8483    20.6003    17.7181 H     122 HOH   0.0000 
367 O        2.2606    24.7826    36.3594 O.3   123 HOH   0.0000 
368 H1       3.2206    24.7826    36.3594 H     123 HOH   0.0000 
369 H2       1.9703    25.4296    37.0064 H     123 HOH   0.0000 
370 O       18.4864    18.0722    25.3115 O.3   124 HOH   0.0000 
371 H1      19.4464    18.0722    25.3115 H     124 HOH   0.0000 
372 H2      18.1961    18.7193    25.9586 H     124 HOH   0.0000 
373 O       -6.4179     5.2409    34.8720 O.3   125 HOH   0.0000 
374 H1      -5.4579     5.2409    34.8720 H     125 HOH   0.0000 
375 H2      -6.7082     5.8879    35.5191 H     125 HOH   0.0000 
376 O      -17.2989    31.5554    25.8146 O.3   126 HOH   0.0000 
377 H1     -16.3389    31.5554    25.8146 H     126 HOH   0.0000 
378 H2     -17.5892    32.2024    26.4617 H     126 HOH   0.0000 
379 O      -13.3618    30.6910    29.0620 O.3   127 HOH   0.0000 
380 H1     -12.4018    30.6910    29.0620 H     127 HOH   0.0000 
381 H2     -13.6521    31.3380    29.7091 H     127 HOH   0.0000 
382 O       -3.5845     9.6578    39.0497 O.3   128 HOH  -0.8340 
383 H1      -3.2217     9.0650    39.7079 H     128 HOH   0.4170 
384 H2      -4.4265     9.9329    39.4126 H     128 HOH   0.4170 
385 O        5.3161    19.5338    38.1802 O.3   129 HOH  -0.8340 
386 H1       5.5638    20.4423    38.0087 H     129 HOH   0.4170 
387 H2       4.5550    19.3827    37.6198 H     129 HOH   0.4170 
388 O       -5.5228    -4.5673    16.2288 O.3   130 HOH   0.0000 
389 H1      -4.5628    -4.5673    16.2288 H     130 HOH   0.0000 
390 H2      -5.8131    -3.9203    16.8758 H     130 HOH   0.0000 
391 O       -7.9218    21.5199    12.9716 O.3   131 HOH   0.0000 
392 H1      -6.9618    21.5199    12.9716 H     131 HOH   0.0000 
393 H2      -8.2121    22.1670    13.6186 H     131 HOH   0.0000 
394 O      -19.3975    13.5675    16.0933 O.3   132 HOH   0.0000 
395 H1     -18.4375    13.5675    16.0933 H     132 HOH   0.0000 
396 H2     -19.6878    14.2146    16.7403 H     132 HOH   0.0000 
397 O        2.0192    24.3922    19.1805 O.3   133 HOH   0.0000 
398 H1       2.9792    24.3922    19.1805 H     133 HOH   0.0000 
399 H2       1.7290    25.0392    19.8276 H     133 HOH   0.0000 
400 O       19.9388    25.2201    44.5695 O.3   134 HOH   0.0000 
401 H1      20.8988    25.2201    44.5695 H     134 HOH   0.0000 
402 H2      19.6485    25.8671    45.2165 H     134 HOH   0.0000 
403 O      -14.8862    31.6129    31.7961 O.3   135 HOH   0.0000 
404 H1     -13.9262    31.6129    31.7961 H     135 HOH   0.0000 
405 H2     -15.1765    32.2599    32.4431 H     135 HOH   0.0000 
406 O       17.2419    28.2147    39.5084 O.3   136 HOH   0.0000 
407 H1      18.2019    28.2147    39.5084 H     136 HOH   0.0000 
408 H2      16.9516    28.8618    40.1554 H     136 HOH   0.0000 
409 O       11.2834    26.8495    23.0617 O.3   137 HOH   0.0000 
410 H1      12.2434    26.8495    23.0617 H     137 HOH   0.0000 
411 H2      10.9932    27.4966    23.7087 H     137 HOH   0.0000 
412 O       -4.2431    22.9507    24.0843 O.3   138 HOH   0.0000 
413 H1      -3.2831    22.9507    24.0843 H     138 HOH   0.0000 
414 H2      -4.5333    23.5977    24.7314 H     138 HOH   0.0000 
415 O       19.1412    13.8944    22.3095 O.3   139 HOH   0.0000 
416 H1      20.1012    13.8944    22.3095 H     139 HOH   0.0000 
417 H2      18.8509    14.5414    22.9565 H     139 HOH   0.0000 
418 O      -15.3043    26.3284    42.7547 O.3   140 HOH   0.0000 
419 H1     -14.3443    26.3284    42.7547 H     140 HOH   0.0000 
420 H2     -15.5946    26.9754    43.4017 H     140 HOH   0.0000 
421 O       18.3794    18.2331    32.3665 O.3   141 HOH   0.0000 
422 H1      19.3394    18.2331    32.3665 H     141 HOH   0.0000 
423 H2      18.0891    18.8802    33.0135 H     141 HOH   0.0000 
424 O       -2.8323    22.4451    12.4049 O.3   142 HOH   0.0000 
425 H1      -1.8723    22.4451    12.4049 H     142 HOH   0.0000 
426 H2      -3.1226    23.0921    13.0519 H     142 HOH   0.0000 
427 O      -10.1013    28.6504    18.6072 O.3   143 HOH   0.0000 
428 H1      -9.1413    28.6504    18.6072 H     143 HOH   0.0000 
429 H2     -10.3916    29.2975    19.2542 H     143 HOH   0.0000 
430 O      -13.2089     7.7150     9.5172 O.3   144 HOH   0.0000 
431 H1     -12.2489     7.7150     9.5172 H     144 HOH   0.0000 
432 H2     -13.4991     8.3620    10.1642 H     144 HOH   0.0000 
433 O       19.2639    20.8400    25.8207 O.3   145 HOH   0.0000 
434 H1      20.2239    20.8400    25.8207 H     145 HOH   0.0000 
435 H2      18.9736    21.4870    26.4677 H     145 HOH   0.0000 
436 O        1.4792    37.4779    37.2600 O.3   146 HOH   0.0000 
437 H1       2.4392    37.4779    37.2600 H     146 HOH   0.0000 
438 H2       1.1890    38.1249    37.9071 H     146 HOH   0.0000 
439 O      -28.1849    15.9875    27.2547 O.3   147 HOH   0.0000 
440 H1     -27.2249    15.9875    27.2547 H     147 HOH   0.0000 
441 H2     -28.4752    16.6346    27.9017 H     147 HOH   0.0000 
442 O        8.2981     8.9998    39.3305 O.3   148 HOH   0.0000 
443 H1       9.2581     8.9998    39.3305 H     148 HOH   0.0000 
444 H2       8.0078     9.6469    39.9775 H     148 HOH   0.0000 
445 O        4.8047    16.7019    18.2732 O.3   149 HOH   0.0000 
446 H1       5.7647    16.7019    18.2732 H     149 HOH   0.0000 
447 H2       4.5145    17.3490    18.9202 H     149 HOH   0.0000 
448 O      -12.8900    28.3237    17.5021 O.3   150 HOH   0.0000 
449 H1     -11.9300    28.3237    17.5021 H     150 HOH   0.0000 
450 H2     -13.1802    28.9708    18.1492 H     150 HOH   0.0000 
451 O        0.1864    27.4915    52.4070 O.3   151 HOH   0.0000 
452 H1       1.1464    27.4915    52.4070 H     151 HOH   0.0000 
453 H2      -0.1039    28.1386    53.0540 H     151 HOH   0.0000 
454 O       10.0637     2.4376    23.9399 O.3   152 HOH   0.0000 
455 H1      11.0237     2.4376    23.9399 H     152 HOH   0.0000 
456 H2       9.7734     3.0847    24.5869 H     152 HOH   0.0000 
457 O       -7.3781     2.6022     7.7757 O.3   153 HOH   0.0000 
458 H1      -6.4181     2.6022     7.7757 H     153 HOH   0.0000 
459 H2      -7.6683     3.2493     8.4228 H     153 HOH   0.0000 
460 O       12.5739    12.9263    26.8045 O.3   154 HOH   0.0000 
461 H1      13.5339    12.9263    26.8045 H     154 HOH   0.0000 
462 H2      12.2836    13.5734    27.4516 H     154 HOH   0.0000 
463 O        8.2068    34.2159    30.9476 O.3   155 HOH   0.0000 
464 H1       9.1668    34.2159    30.9476 H     155 HOH   0.0000 
465 H2       7.9165    34.8630    31.5946 H     155 HOH   0.0000 
466 O      -12.8999    29.9529    33.4886 O.3   156 HOH   0.0000 
467 H1     -11.9399    29.9529    33.4886 H     156 HOH   0.0000 
468 H2     -13.1901    30.5999    34.1357 H     156 HOH   0.0000 
469 O       -3.7659    17.1631    47.8934 O.3   157 HOH  -0.8340 
470 H1      -3.4636    18.0662    47.7966 H     157 HOH   0.4170 
471 H2      -4.5172    17.2235    48.4834 H     157 HOH   0.4170 
472 O      -24.3822    24.6409    22.1835 O.3   158 HOH   0.0000 
473 H1     -23.4222    24.6409    22.1835 H     158 HOH   0.0000 
474 H2     -24.6724    25.2879    22.8305 H     158 HOH   0.0000 
475 O       16.4322    35.1824    41.9975 O.3   159 HOH   0.0000 
476 H1      17.3922    35.1824    41.9975 H     159 HOH   0.0000 
477 H2      16.1419    35.8294    42.6445 H     159 HOH   0.0000 
478 O        0.1718    30.8807    43.7023 O.3   160 HOH   0.0000 
479 H1       1.1318    30.8807    43.7023 H     160 HOH   0.0000 
480 H2      -0.1184    31.5278    44.3493 H     160 HOH   0.0000 
481 O       10.9666    10.5902    31.9355 O.3   161 HOH   0.0000 
482 H1      11.9266    10.5902    31.9355 H     161 HOH   0.0000 
483 H2      10.6763    11.2372    32.5826 H     161 HOH   0.0000 
484 O       -0.9990    -3.4138    17.7810 O.3   162 HOH   0.0000 
485 H1      -0.0390    -3.4138    17.7810 H     162 HOH   0.0000 
486 H2      -1.2893    -2.7667    18.4280 H     162 HOH   0.0000 
487 O       18.3711    25.8752    41.8890 O.3   163 HOH   0.0000 
488 H1      19.3311    25.8752    41.8890 H     163 HOH   0.0000 
489 H2      18.0808    26.5223    42.5360 H     163 HOH   0.0000 
490 O      -19.0894    22.7920    18.2307 O.3   164 HOH   0.0000 
491 H1     -18.1294    22.7920    18.2307 H     164 HOH   0.0000 
492 H2     -19.3797    23.4390    18.8778 H     164 HOH   0.0000 
493 O       22.7735    25.8113    28.8127 O.3   165 HOH   0.0000 
494 H1      23.7335    25.8113    28.8127 H     165 HOH   0.0000 
495 H2      22.4833    26.4584    29.4598 H     165 HOH   0.0000 
496 O      -27.7085    20.6406    31.0409 O.3   166 HOH   0.0000 
497 H1     -26.7485    20.6406    31.0409 H     166 HOH   0.0000 
498 H2     -27.9988    21.2876    31.6880 H     166 HOH   0.0000 
499 O      -20.0288    25.8169    20.8295 O.3   167 HOH   0.0000 
500 H1     -19.0688    25.8169    20.8295 H     167 HOH   0.0000 
501 H2     -20.3191    26.4640    21.4765 H     167 HOH   0.0000 
502 O      -22.3992     9.1474    33.8292 O.3   168 HOH   0.0000 
503 H1     -21.4392     9.1474    33.8292 H     168 HOH   0.0000 
504 H2     -22.6895     9.7944    34.4762 H     168 HOH   0.0000 
505 O        5.1733    18.5859    23.1014 O.3   169 HOH   0.0000 
506 H1       6.1333    18.5859    23.1014 H     169 HOH   0.0000 
507 H2       4.8830    19.2329    23.7485 H     169 HOH   0.0000 
508 O       19.3672    12.1814    41.1809 O.3   170 HOH   0.0000 
509 H1      20.3272    12.1814    41.1809 H     170 HOH   0.0000 
510 H2      19.0770    12.8284    41.8280 H     170 HOH   0.0000 
511 O        3.5096    18.4823    20.3683 O.3   171 HOH   0.0000 
512 H1       4.4696    18.4823    20.3683 H     171 HOH   0.0000 
513 H2       3.2194    19.1293    21.0154 H     171 HOH   0.0000 
514 O        1.3924     9.0762    42.2984 O.3   172 HOH  -0.8340 
515 H1       1.1642     8.6822    41.4564 H     172 HOH   0.4170 
516 H2       0.5858     9.0297    42.8117 H     172 HOH   0.4170 
517 O        3.0097    10.4508    24.3767 O.3   173 HOH   0.0000 
518 H1       3.9697    10.4508    24.3767 H     173 HOH   0.0000 
519 H2       2.7195    11.0978    25.0237 H     173 HOH   0.0000 
520 O      -13.2419    27.5054    14.6040 O.3   174 HOH   0.0000 
521 H1     -12.2819    27.5054    14.6040 H     174 HOH   0.0000 
522 H2     -13.5322    28.1525    15.2511 H     174 HOH   0.0000 
523 O      -26.1896    16.8096    33.8483 O.3   175 HOH   0.0000 
524 H1     -25.2296    16.8096    33.8483 H     175 HOH   0.0000 
525 H2     -26.4798    17.4567    34.4954 H     175 HOH   0.0000 
526 O        0.1578    10.3669    23.5711 O.3   176 HOH   0.0000 
527 H1       1.1178    10.3669    23.5711 H     176 HOH   0.0000 
528 H2      -0.1325    11.0140    24.2181 H     176 HOH   0.0000 
529 O        2.8617    11.0019    27.4633 O.3   177 HOH   0.0000 
530 H1       3.8217    11.0019    27.4633 H     177 HOH   0.0000 
531 H2       2.5714    11.6489    28.1103 H     177 HOH   0.0000 
532 O       13.1881     7.8294    40.4564 O.3   178 HOH   0.0000 
533 H1      14.1481     7.8294    40.4564 H     178 HOH   0.0000 
534 H2      12.8978     8.4764    41.1035 H     178 HOH   0.0000 
535 O      -18.2282    32.2641    28.5557 O.3   179 HOH   0.0000 
536 H1     -17.2682    32.2641    28.5557 H     179 HOH   0.0000 
537 H2     -18.5185    32.9112    29.2027 H     179 HOH   0.0000 
538 O        6.5954     7.5615    41.6584 O.3   180 HOH   0.0000 
539 H1       7.5554     7.5615    41.6584 H     180 HOH   0.0000 
540 H2       6.3052     8.2086    42.3055 H     180 HOH   0.0000 
541 O      -19.1723    16.2101    14.6698 O.3   181 HOH   0.0000 
542 H1     -18.2123    16.2101    14.6698 H     181 HOH   0.0000 
543 H2     -19.4626    16.8571    15.3169 H     181 HOH   0.0000 
544 O      -17.3132     1.2380    30.0004 O.3   182 HOH   0.0000 
545 H1     -16.3532     1.2380    30.0004 H     182 HOH   0.0000 
546 H2     -17.6035     1.8851    30.6475 H     182 HOH   0.0000 
547 O       -8.2080    -8.7222    15.5354 O.3   183 HOH   0.0000 
548 H1      -7.2480    -8.7222    15.5354 H     183 HOH   0.0000 
549 H2      -8.4983    -8.0752    16.1825 H     183 HOH   0.0000 
550 O       -9.7444    12.4722    47.8815 O.3   184 HOH   0.0000 
551 H1      -8.7844    12.4722    47.8815 H     184 HOH   0.0000 
552 H2     -10.0347    13.1192    48.5285 H     184 HOH   0.0000 
553 O       -3.3625    -6.5602    17.3814 O.3   185 HOH   0.0000 
554 H1      -2.4025    -6.5602    17.3814 H     185 HOH   0.0000 
555 H2      -3.6528    -5.9132    18.0285 H     185 HOH   0.0000 
556 O       -0.4824    29.2165    46.1260 O.3   186 HOH   0.0000 
557 H1       0.4776    29.2165    46.1260 H     186 HOH   0.0000 
558 H2      -0.7727    29.8636    46.7730 H     186 HOH   0.0000 
559 O       -1.1429    26.8594    49.6496 O.3   187 HOH   0.0000 
560 H1      -0.1829    26.8594    49.6496 H     187 HOH   0.0000 
561 H2      -1.4331    27.5065    50.2966 H     187 HOH   0.0000 
562 O       -2.3678     8.3391    41.5361 O.3   188 HOH  -0.8340 
563 H1      -2.0050     7.7464    42.1943 H     188 HOH   0.4170 
564 H2      -3.2098     8.6142    41.8989 H     188 HOH   0.4170 
565 O       15.9112     7.6622    39.3682 O.3   189 HOH   0.0000 
566 H1      16.8712     7.6622    39.3682 H     189 HOH   0.0000 
567 H2      15.6209     8.3092    40.0153 H     189 HOH   0.0000 
568 O       11.3107    15.0890    51.5084 O.3   190 HOH   0.0000 
569 H1      12.2707    15.0890    51.5084 H     190 HOH   0.0000 
570 H2      11.0204    15.7361    52.1555 H     190 HOH   0.0000 
571 O      -15.2491    30.1944    18.1956 O.3   191 HOH   0.0000 
572 H1     -14.2891    30.1944    18.1956 H     191 HOH   0.0000 
573 H2     -15.5394    30.8415    18.8426 H     191 HOH   0.0000 
574 O      -23.6317     4.7527    23.3833 O.3   192 HOH   0.0000 
575 H1     -22.6717     4.7527    23.3833 H     192 HOH   0.0000 
576 H2     -23.9220     5.3998    24.0303 H     192 HOH   0.0000 
577 O      -15.4681     4.9967    43.1347 O.3   193 HOH   0.0000 
578 H1     -14.5081     4.9967    43.1347 H     193 HOH   0.0000 
579 H2     -15.7584     5.6437    43.7817 H     193 HOH   0.0000 
580 O       -4.8576    30.9176    41.7498 O.3   194 HOH   0.0000 
581 H1      -3.8976    30.9176    41.7498 H     194 HOH   0.0000 
582 H2      -5.1479    31.5647    42.3968 H     194 HOH   0.0000 
583 O        0.3454    -3.2860    28.8110 O.3   195 HOH   0.0000 
584 H1       1.3054    -3.2860    28.8110 H     195 HOH   0.0000 
585 H2       0.0551    -2.6389    29.4580 H     195 HOH   0.0000 
586 O      -10.8887    31.5558    22.3987 O.3   196 HOH   0.0000 
587 H1      -9.9287    31.5558    22.3987 H     196 HOH   0.0000 
588 H2     -11.1790    32.2028    23.0458 H     196 HOH   0.0000 
589 O        4.8055    21.0886    32.7665 O.3   197 HOH  -0.8340 
590 H1       4.3477    21.2687    31.9453 H     197 HOH   0.4170 
591 H2       5.6696    21.4840    32.6511 H     197 HOH   0.4170 
@<TRIPOS>BOND
  1   1   2  1   
  2   1   3  1   
  3   4   5  1   
  4   4   6  1   
  5   7   8  1   
  6   7   9  1   
  7  10  11  1   
  8  10  12  1   
  9  13  14  1   
 10  13  15  1   
 11  16  17  1   
 12  16  18  1   
 13  19  20  1   
 14  19  21  1   
 15  22  23  1   
 16  22  24  1   
 17  25  26  1   
 18  25  27  1   
 19  28  29  1   
 20  28  30  1   
 21  31  32  1   
 22  31  33  1   
 23  34  35  1   
 24  34  36  1   
 25  37  38  1   
 26  37  39  1   
 27  40  41  1   
 28  40  42  1   
 29  43  44  1   
 30  43  45  1   
 31  46  47  1   
 32  46  48  1   
 33  49  50  1   
 34  49  51  1   
 35  52  53  1   
 36  52  54  1   
 37  55  56  1   
 38  55  57  1   
 39  58  59  1   
 40  58  60  1   
 41  61  62  1   
 42  61  63  1   
 43  64  65  1   
 44  64  66  1   
 45  67  68  1   
 46  67  69  1   
 47  70  71  1   
 48  70  72  1   
 49  73  74  1   
 50  73  75  1   
 51  76  77  1   
 52  76  78  1   
 53  79  80  1   
 54  79  81  1   
 55  82  83  1   
 56  82  84  1   
 57  85  86  1   
 58  85  87  1   
 59  88  89  1   
 60  88  90  1   
 61  91  92  1   
 62  91  93  1   
 63  94  95  1   
 64  94  96  1   
 65  97  98  1   
 66  97  99  1   
 67 100 101  1   
 68 100 102  1   
 69 103 104  1   
 70 103 105  1   
 71 106 107  1   
 72 106 108  1   
 73 109 110  1   
 74 109 111  1   
 75 112 113  1   
 76 112 114  1   
 77 115 116  1   
 78 115 117  1   
 79 118 119  1   
 80 118 120  1   
 81 121 122  1   
 82 121 123  1   
 83 124 125  1   
 84 124 126  1   
 85 127 128  1   
 86 127 129  1   
 87 130 131  1   
 88 130 132  1   
 89 133 134  1   
 90 133 135  1   
 91 136 137  1   
 92 136 138  1   
 93 139 140  1   
 94 139 141  1   
 95 142 143  1   
 96 142 144  1   
 97 145 146  1   
 98 145 147  1   
 99 148 149  1   
100 148 150  1   
101 151 152  1   
102 151 153  1   
103 154 155  1   
104 154 156  1   
105 157 158  1   
106 157 159  1   
107 160 161  1   
108 160 162  1   
109 163 164  1   
110 163 165  1   
111 166 167  1   
112 166 168  1   
113 169 170  1   
114 169 171  1   
115 172 173  1   
116 172 174  1   
117 175 176  1   
118 175 177  1   
119 178 179  1   
120 178 180  1   
121 181 182  1   
122 181 183  1   
123 184 185  1   
124 184 186  1   
125 187 188  1   
126 187 189  1   
127 190 191  1   
128 190 192  1   
129 193 194  1   
130 193 195  1   
131 196 197  1   
132 196 198  1   
133 199 200  1   
134 199 201  1   
135 202 203  1   
136 202 204  1   
137 205 206  1   
138 205 207  1   
139 208 209  1   
140 208 210  1   
141 211 212  1   
142 211 213  1   
143 214 215  1   
144 214 216  1   
145 217 218  1   
146 217 219  1   
147 220 221  1   
148 220 222  1   
149 223 224  1   
150 223 225  1   
151 226 227  1   
152 226 228  1   
153 229 230  1   
154 229 231  1   
155 232 233  1   
156 232 234  1   
157 235 236  1   
158 235 237  1   
159 238 239  1   
160 238 240  1   
161 241 242  1   
162 241 243  1   
163 244 245  1   
164 244 246  1   
165 247 248  1   
166 247 249  1   
167 250 251  1   
168 250 252  1   
169 253 254  1   
170 253 255  1   
171 256 257  1   
172 256 258  1   
173 259 260  1   
174 259 261  1   
175 262 263  1   
176 262 264  1   
177 265 266  1   
178 265 267  1   
179 268 269  1   
180 268 270  1   
181 271 272  1   
182 271 273  1   
183 274 275  1   
184 274 276  1   
185 277 278  1   
186 277 279  1   
187 280 281  1   
188 280 282  1   
189 283 284  1   
190 283 285  1   
191 286 287  1   
192 286 288  1   
193 289 290  1   
194 289 291  1   
195 292 293  1   
196 292 294  1   
197 295 296  1   
198 295 297  1   
199 298 299  1   
200 298 300  1   
201 301 302  1   
202 301 303  1   
203 304 305  1   
204 304 306  1   
205 307 308  1   
206 307 309  1   
207 310 311  1   
208 310 312  1   
209 313 314  1   
210 313 315  1   
211 316 317  1   
212 316 318  1   
213 319 320  1   
214 319 321  1   
215 322 323  1   
216 322 324  1   
217 325 326  1   
218 325 327  1   
219 328 329  1   
220 328 330  1   
221 331 332  1   
222 331 333  1   
223 334 335  1   
224 334 336  1   
225 337 338  1   
226 337 339  1   
227 340 341  1   
228 340 342  1   
229 343 344  1   
230 343 345  1   
231 346 347  1   
232 346 348  1   
233 349 350  1   
234 349 351  1   
235 352 353  1   
236 352 354  1   
237 355 356  1   
238 355 357  1   
239 358 359  1   
240 358 360  1   
241 361 362  1   
242 361 363  1   
243 364 365  1   
244 364 366  1   
245 367 368  1   
246 367 369  1   
247 370 371  1   
248 370 372  1   
249 373 374  1   
250 373 375  1   
251 376 377  1   
252 376 378  1   
253 379 380  1   
254 379 381  1   
255 382 383  1   
256 382 384  1   
257 385 386  1   
258 385 387  1   
259 388 389  1   
260 388 390  1   
261 391 392  1   
262 391 393  1   
263 394 395  1   
264 394 396  1   
265 397 398  1   
266 397 399  1   
267 400 401  1   
268 400 402  1   
269 403 404  1   
270 403 405  1   
271 406 407  1   
272 406 408  1   
273 409 410  1   
274 409 411  1   
275 412 413  1   
276 412 414  1   
277 415 416  1   
278 415 417  1   
279 418 419  1   
280 418 420  1   
281 421 422  1   
282 421 423  1   
283 424 425  1   
284 424 426  1   
285 427 428  1   
286 427 429  1   
287 430 431  1   
288 430 432  1   
289 433 434  1   
290 433 435  1   
291 436 437  1   
292 436 438  1   
293 439 440  1   
294 439 441  1   
295 442 443  1   
296 442 444  1   
297 445 446  1   
298 445 447  1   
299 448 449  1   
300 448 450  1   
301 451 452  1   
302 451 453  1   
303 454 455  1   
304 454 456  1   
305 457 458  1   
306 457 459  1   
307 460 461  1   
308 460 462  1   
309 463 464  1   
310 463 465  1   
311 466 467  1   
312 466 468  1   
313 469 470  1   
314 469 471  1   
315 472 473  1   
316 472 474  1   
317 475 476  1   
318 475 477  1   
319 478 479  1   
320 478 480  1   
321 481 482  1   
322 481 483  1   
323 484 485  1   
324 484 486  1   
325 487 488  1   
326 487 489  1   
327 490 491  1   
328 490 492  1   
329 493 494  1   
330 493 495  1   
331 496 497  1   
332 496 498  1   
333 499 500  1   
334 499 501  1   
335 502 503  1   
336 502 504  1   
337 505 506  1   
338 505 507  1   
339 508 509  1   
340 508 510  1   
341 511 512  1   
342 511 513  1   
343 514 515  1   
344 514 516  1   
345 517 518  1   
346 517 519  1   
347 520 521  1   
348 520 522  1   
349 523 524  1   
350 523 525  1   
351 526 527  1   
352 526 528  1   
353 529 530  1   
354 529 531  1   
355 532 533  1   
356 532 534  1   
357 535 536  1   
358 535 537  1   
359 538 539  1   
360 538 540  1   
361 541 542  1   
362 541 543  1   
363 544 545  1   
364 544 546  1   
365 547 548  1   
366 547 549  1   
367 550 551  1   
368 550 552  1   
369 553 554  1   
370 553 555  1   
371 556 557  1   
372 556 558  1   
373 559 560  1   
374 559 561  1   
375 562 563  1   
376 562 564  1   
377 565 566  1   
378 565 567  1   
379 568 569  1   
380 568 570  1   
381 571 572  1   
382 571 573  1   
383 574 575  1   
384 574 576  1   
385 577 578  1   
386 577 579  1   
387 580 581  1   
388 580 582  1   
389 583 584  1   
390 583 585  1   
391 586 587  1   
392 586 588  1   
393 589 590  1   
394 589 591  1   
@<TRIPOS>SUBSTRUCTURE
  1 HOH   1 GROUP 4 B **** 0
  2 HOH   4 GROUP 4 B **** 0
  3 HOH   7 GROUP 4 B **** 0
  4 HOH  10 GROUP 4 B **** 0
  5 HOH  13 GROUP 4 B **** 0
  6 HOH  16 GROUP 4 B **** 0
  7 HOH  19 GROUP 4 B **** 0
  8 HOH  22 GROUP 4 B **** 0
  9 HOH  25 GROUP 4 B **** 0
 10 HOH  28 GROUP 4 B **** 0
 11 HOH  31 GROUP 4 B **** 0
 12 HOH  34 GROUP 4 B **** 0
 13 HOH  37 GROUP 4 B **** 0
 14 HOH  40 GROUP 4 B **** 0
 15 HOH  43 GROUP 4 B **** 0
 16 HOH  46 GROUP 4 B **** 0
 17 HOH  49 GROUP 4 B **** 0
 18 HOH  52 GROUP 4 B **** 0
 19 HOH  55 GROUP 4 B **** 0
 20 HOH  58 GROUP 4 B **** 0
 21 HOH  61 GROUP 4 B **** 0
 22 HOH  64 GROUP 4 B **** 0
 23 HOH  67 GROUP 4 B **** 0
 24 HOH  70 GROUP 4 B **** 0
 25 HOH  73 GROUP 4 B **** 0
 26 HOH  76 GROUP 4 B **** 0
 27 HOH  79 GROUP 4 B **** 0
 28 HOH  82 GROUP 4 B **** 0
 29 HOH  85 GROUP 4 B **** 0
 30 HOH  88 GROUP 4 B **** 0
 31 HOH  91 GROUP 4 B **** 0
 32 HOH  94 GROUP 4 B **** 0
 33 HOH  97 GROUP 4 B **** 0
 34 HOH 100 GROUP 4 B **** 0
 35 HOH 103 GROUP 4 B **** 0
 36 HOH 106 GROUP 4 B **** 0
 37 HOH 109 GROUP 4 B **** 0
 38 HOH 112 GROUP 4 B **** 0
 39 HOH 115 GROUP 4 B **** 0
 40 HOH 118 GROUP 4 B **** 0
 41 HOH 121 GROUP 4 B **** 0
 42 HOH 124 GROUP 4 B **** 0
 43 HOH 127 GROUP 4 B **** 0
 44 HOH 130 GROUP 4 B **** 0
 45 HOH 133 GROUP 4 B **** 0
 46 HOH 136 GROUP 4 B **** 0
 47 HOH 139 GROUP 4 B **** 0
 48 HOH 142 GROUP 4 B **** 0
 49 HOH 145 GROUP 4 B **** 0
 50 HOH 148 GROUP 4 B **** 0
 51 HOH 151 GROUP 4 B **** 0
 52 HOH 154 GROUP 4 B **** 0
 53 HOH 157 GROUP 4 B **** 0
 54 HOH 160 GROUP 4 B **** 0
 55 HOH 163 GROUP 4 B **** 0
 56 HOH 166 GROUP 4 B **** 0
 57 HOH 169 GROUP 4 B **** 0
 58 HOH 172 GROUP 4 B **** 0
 59 HOH 175 GROUP 4 B **** 0
 60 HOH 178 GROUP 4 B **** 0
 61 HOH 181 GROUP 4 B **** 0
 62 HOH 184 GROUP 4 B **** 0
 63 HOH 187 GROUP 4 B **** 0
 64 HOH 190 GROUP 4 B **** 0
 65 HOH 193 GROUP 4 B **** 0
 66 HOH 196 GROUP 4 B **** 0
 67 HOH 199 GROUP 4 B **** 0
 68 HOH 202 GROUP 4 B **** 0
 69 HOH 205 GROUP 4 B **** 0
 70 HOH 208 GROUP 4 B **** 0
 71 HOH 211 GROUP 4 B **** 0
 72 HOH 214 GROUP 4 B **** 0
 73 HOH 217 GROUP 4 B **** 0
 74 HOH 220 GROUP 4 B **** 0
 75 HOH 223 GROUP 4 B **** 0
 76 HOH 226 GROUP 4 B **** 0
 77 HOH 229 GROUP 4 B **** 0
 78 HOH 232 GROUP 4 B **** 0
 79 HOH 235 GROUP 4 B **** 0
 80 HOH 238 GROUP 4 B **** 0
 81 HOH 241 GROUP 4 B **** 0
 82 HOH 244 GROUP 4 B **** 0
 83 HOH 247 GROUP 4 B **** 0
 84 HOH 250 GROUP 4 B **** 0
 85 HOH 253 GROUP 4 B **** 0
 86 HOH 256 GROUP 4 B **** 0
 87 HOH 259 GROUP 4 B **** 0
 88 HOH 262 GROUP 4 B **** 0
 89 HOH 265 GROUP 4 B **** 0
 90 HOH 268 GROUP 4 B **** 0
 91 HOH 271 GROUP 4 B **** 0
 92 HOH 274 GROUP 4 B **** 0
 93 HOH 277 GROUP 4 B **** 0
 94 HOH 280 GROUP 4 B **** 0
 95 HOH 283 GROUP 4 B **** 0
 96 HOH 286 GROUP 4 B **** 0
 97 HOH 289 GROUP 4 B **** 0
 98 HOH 292 GROUP 4 B **** 0
 99 HOH 295 GROUP 4 B **** 0
100 HOH 298 GROUP 4 B **** 0
101 HOH 301 GROUP 4 B **** 0
102 HOH 304 GROUP 4 B **** 0
103 HOH 307 GROUP 4 B **** 0
104 HOH 310 GROUP 4 B **** 0
105 HOH 313 GROUP 4 B **** 0
106 HOH 316 GROUP 4 B **** 0
107 HOH 319 GROUP 4 B **** 0
108 HOH 322 GROUP 4 B **** 0
109 HOH 325 GROUP 4 B **** 0
110 HOH 328 GROUP 4 B **** 0
111 HOH 331 GROUP 4 B **** 0
112 HOH 334 GROUP 4 B **** 0
113 HOH 337 GROUP 4 B **** 0
114 HOH 340 GROUP 4 B **** 0
115 HOH 343 GROUP 4 B **** 0
116 HOH 346 GROUP 4 B **** 0
117 HOH 349 GROUP 4 B **** 0
118 HOH 352 GROUP 4 B **** 0
119 HOH 355 GROUP 4 B **** 0
120 HOH 358 GROUP 4 B **** 0
121 HOH 361 GROUP 4 B **** 0
122 HOH 364 GROUP 4 B **** 0
123 HOH 367 GROUP 4 B **** 0
124 HOH 370 GROUP 4 B **** 0
125 HOH 373 GROUP 4 B **** 0
126 HOH 376 GROUP 4 B **** 0
127 HOH 379 GROUP 4 B **** 0
128 HOH 382 GROUP 4 B **** 0
129 HOH 385 GROUP 4 B **** 0
130 HOH 388 GROUP 4 B **** 0
131 HOH 391 GROUP 4 B **** 0
132 HOH 394 GROUP 4 B **** 0
133 HOH 397 GROUP 4 B **** 0
134 HOH 400 GROUP 4 B **** 0
135 HOH 403 GROUP 4 B **** 0
136 HOH 406 GROUP 4 B **** 0
137 HOH 409 GROUP 4 B **** 0
138 HOH 412 GROUP 4 B **** 0
139 HOH 415 GROUP 4 B **** 0
140 HOH 418 GROUP 4 B **** 0
141 HOH 421 GROUP 4 B **** 0
142 HOH 424 GROUP 4 B **** 0
143 HOH 427 GROUP 4 B **** 0
144 HOH 430 GROUP 4 B **** 0
145 HOH 433 GROUP 4 B **** 0
146 HOH 436 GROUP 4 B **** 0
147 HOH 439 GROUP 4 B **** 0
148 HOH 442 GROUP 4 B **** 0
149 HOH 445 GROUP 4 B **** 0
150 HOH 448 GROUP 4 B **** 0
151 HOH 451 GROUP 4 B **** 0
152 HOH 454 GROUP 4 B **** 0
153 HOH 457 GROUP 4 B **** 0
154 HOH 460 GROUP 4 B **** 0
155 HOH 463 GROUP 4 B **** 0
156 HOH 466 GROUP 4 B **** 0
157 HOH 469 GROUP 4 B **** 0
158 HOH 472 GROUP 4 B **** 0
159 HOH 475 GROUP 4 B **** 0
160 HOH 478 GROUP 4 B **** 0
161 HOH 481 GROUP 4 B **** 0
162 HOH 484 GROUP 4 B **** 0
163 HOH 487 GROUP 4 B **** 0
164 HOH 490 GROUP 4 B **** 0
165 HOH 493 GROUP 4 B **** 0
166 HOH 496 GROUP 4 B **** 0
167 HOH 499 GROUP 4 B **** 0
168 HOH 502 GROUP 4 B **** 0
169 HOH 505 GROUP 4 B **** 0
170 HOH 508 GROUP 4 B **** 0
171 HOH 511 GROUP 4 B **** 0
172 HOH 514 GROUP 4 B **** 0
173 HOH 517 GROUP 4 B **** 0
174 HOH 520 GROUP 4 B **** 0
175 HOH 523 GROUP 4 B **** 0
176 HOH 526 GROUP 4 B **** 0
177 HOH 529 GROUP 4 B **** 0
178 HOH 532 GROUP 4 B **** 0
179 HOH 535 GROUP 4 B **** 0
180 HOH 538 GROUP 4 B **** 0
181 HOH 541 GROUP 4 B **** 0
182 HOH 544 GROUP 4 B **** 0
183 HOH 547 GROUP 4 B **** 0
184 HOH 550 GROUP 4 B **** 0
185 HOH 553 GROUP 4 B **** 0
186 HOH 556 GROUP 4 B **** 0
187 HOH 559 GROUP 4 B **** 0
188 HOH 562 GROUP 4 B **** 0
189 HOH 565 GROUP 4 B **** 0
190 HOH 568 GROUP 4 B **** 0
191 HOH 571 GROUP 4 B **** 0
192 HOH 574 GROUP 4 B **** 0
193 HOH 577 GROUP 4 B **** 0
194 HOH 580 GROUP 4 B **** 0
195 HOH 583 GROUP 4 B **** 0
196 HOH 586 GROUP 4 B **** 0
197 HOH 589 GROUP 4 B **** 0

# MOE 2012.10 (io_trps.svl 2012.10)
