@<TRIPOS>MOLECULE
6bl8.A
5 4 1 0 0 
SMALL
USER_CHARGES


@<TRIPOS>ATOM
  1 S        7.3475    12.4792    54.2648 S.o2  1 SO4   0.0000 
  2 O1       8.1923    11.4290    54.8310 O.co2 1 SO4  -0.5000 
  3 O2       7.0885    13.4661    55.2927 O.co2 1 SO4  -0.5000 
  4 O3       6.1126    11.8616    53.8386 O.co2 1 SO4  -0.5000 
  5 O4       8.0472    13.0875    53.1334 O.co2 1 SO4  -0.5000 
@<TRIPOS>BOND
  1   1   2  ar  
  2   1   3  ar  
  3   1   4  ar  
  4   1   5  ar  
@<TRIPOS>SUBSTRUCTURE
  1 SO4   1 GROUP 4 A **** 0

# MOE 2012.10 (io_trps.svl 2012.10)
