@<TRIPOS>MOLECULE
6bl8.A
54 56 1 0 0 
SMALL
USER_CHARGES


@<TRIPOS>ATOM
  1 N1      -0.3215    16.4479    43.6385 N.ar  1 PVB  -0.6200 
  2 C9       1.4706    20.5518    40.9018 C.3   1 PVB   0.1756 
  3 H9       1.6427    21.6112    41.0923 H     1 PVB   0.0800 
  4 N9       0.6593    20.0056    42.0100 N.pl3 1 PVB   0.0476 
  5 C4       0.4532    18.6811    42.3825 C.ar  1 PVB   0.1054 
  6 N3       0.8212    17.4603    41.8375 N.ar  1 PVB  -0.5670 
  7 C2       0.3868    16.3828    42.5287 C.ar  1 PVB   0.7200 
  8 C6      -0.6304    17.5898    44.2061 C.ar  1 PVB   0.4100 
  9 C5      -0.2584    18.7808    43.5304 C.ar  1 PVB   0.2272 
 10 N7      -0.5174    19.9942    43.8792 N.2   1 PVB  -0.5653 
 11 C8       0.0178    20.7318    42.9606 C.2   1 PVB   0.0365 
 12 H8      -0.0397    21.8103    42.9512 H     1 PVB   0.1500 
 13 N6      -1.1610    17.6404    45.5415 N.pl3 1 PVB  -0.6000 
 14 H6      -1.2264    18.5712    45.9280 H     1 PVB   0.4000 
 15 C1A     -1.6213    16.5854    46.4361 C.ar  1 PVB   0.1000 
 16 C2A     -2.6138    16.8112    47.3785 C.ar  1 PVB  -0.1500 
 17 H2A     -3.1056    17.7722    47.4125 H     1 PVB   0.1500 
 18 C3A     -2.9823    15.8294    48.2718 C.ar  1 PVB  -0.1500 
 19 H3A     -3.7325    16.0421    49.0191 H     1 PVB   0.1500 
 20 C4A     -2.4145    14.6000    48.2240 C.ar  1 PVB  -0.1790 
 21 C5A     -1.4837    14.3704    47.2614 C.ar  1 PVB   0.1770 
 22 CL1     -0.9463    12.8125    46.9592 Cl    1 PVB  -0.1770 
 23 C6A     -1.0430    15.3348    46.4609 C.ar  1 PVB  -0.1500 
 24 H6A     -0.2056    15.1325    45.8095 H     1 PVB   0.1500 
 25 CX      -2.7793    13.5895    49.2441 C.2   1 PVB   0.9790 
 26 OX1     -2.9784    12.3322    49.0489 O.co2 1 PVB  -0.9000 
 27 OX2     -2.9330    13.7922    50.3388 O.co2 1 PVB  -0.9000 
 28 N2       0.6685    15.0796    42.1797 N.pl3 1 PVB  -0.8691 
 29 H2       1.2569    14.9428    41.3703 H     1 PVB   0.4000 
 30 C12      0.1918    13.8533    42.8768 C.3   1 PVB   0.2891 
 31 H12     -0.1167    14.1772    43.8708 H     1 PVB   0.0800 
 32 C13      1.3323    12.8223    43.1557 C.3   1 PVB  -0.0800 
 33 H13      1.5515    12.9427    44.2166 H     1 PVB   0.0800 
 34 C16      0.9136    11.4110    42.9321 C.3   1 PVB  -0.2400 
 35 H161     0.6876    11.2620    41.8763 H     1 PVB   0.0800 
 36 H162     0.0261    11.1966    43.5275 H     1 PVB   0.0800 
 37 H163     1.7207    10.7413    43.2290 H     1 PVB   0.0800 
 38 C14      2.5640    13.1058    42.4035 C.3   1 PVB  -0.2400 
 39 H141     2.3723    12.9924    41.3365 H     1 PVB   0.0800 
 40 H142     3.3445    12.4088    42.7086 H     1 PVB   0.0800 
 41 H143     2.8879    14.1262    42.6081 H     1 PVB   0.0800 
 42 C15     -1.1244    13.2559    42.2817 C.3   1 PVB   0.1200 
 43 H151    -1.9620    13.8662    42.6193 H     1 PVB   0.0800 
 44 H152    -1.2408    12.2393    42.6575 H     1 PVB   0.0800 
 45 O1      -1.1436    13.2162    40.9566 O.3   1 PVB  -0.6800 
 46 H1      -1.0404    14.1158    40.6378 H     1 PVB   0.4000 
 47 C11      0.7507    20.4374    39.6091 C.3   1 PVB  -0.2400 
 48 H111     0.5631    19.3863    39.3895 H     1 PVB   0.0800 
 49 H112     1.3583    20.8716    38.8151 H     1 PVB   0.0800 
 50 H113    -0.1981    20.9701    39.6731 H     1 PVB   0.0800 
 51 C10      2.7733    19.8750    40.8402 C.3   1 PVB  -0.2400 
 52 H101     2.6220    18.8124    40.6500 H     1 PVB   0.0800 
 53 H102     3.2948    20.0037    41.7887 H     1 PVB   0.0800 
 54 H103     3.3695    20.3067    40.0363 H     1 PVB   0.0800 
@<TRIPOS>BOND
  1   1   7  ar  
  2   1   8  ar  
  3   2   3  1   
  4   2   4  1   
  5   2  47  1   
  6   2  51  1   
  7   4   5  1   
  8   4  11  1   
  9   5   6  ar  
 10   5   9  ar  
 11   6   7  ar  
 12   7  28  1   
 13   8   9  ar  
 14   8  13  1   
 15   9  10  1   
 16  10  11  2   
 17  11  12  1   
 18  13  14  1   
 19  13  15  1   
 20  15  16  ar  
 21  15  23  ar  
 22  16  17  1   
 23  16  18  ar  
 24  18  19  1   
 25  18  20  ar  
 26  20  21  ar  
 27  20  25  1   
 28  21  22  1   
 29  21  23  ar  
 30  23  24  1   
 31  25  26  ar  
 32  25  27  ar  
 33  28  29  1   
 34  28  30  1   
 35  30  31  1   
 36  30  32  1   
 37  30  42  1   
 38  32  33  1   
 39  32  34  1   
 40  32  38  1   
 41  34  35  1   
 42  34  36  1   
 43  34  37  1   
 44  38  39  1   
 45  38  40  1   
 46  38  41  1   
 47  42  43  1   
 48  42  44  1   
 49  42  45  1   
 50  45  46  1   
 51  47  48  1   
 52  47  49  1   
 53  47  50  1   
 54  51  52  1   
 55  51  53  1   
 56  51  54  1   
@<TRIPOS>SUBSTRUCTURE
  1 PVB   1 GROUP 4 A **** 0

# MOE 2012.10 (io_trps.svl 2012.10)
