@<TRIPOS>MOLECULE
5mo4.A
49 52 1 0 0 
SMALL
USER_CHARGES


@<TRIPOS>ATOM
  1 C1     -22.0422     4.6812    39.9705 C.ar  1 AY7   0.4100 
  2 C3     -21.5547     3.0914    41.7902 C.3   1 AY7   0.2091 
  3 H31    -21.5282     3.9633    42.4439 H     1 AY7   0.0800 
  4 H32    -20.5706     2.6232    41.7689 H     1 AY7   0.0800 
  5 C11    -21.2040     5.1039    38.9072 C.ar  1 AY7   0.0530 
  6 C12    -20.1417     4.2377    38.2808 C.2   1 AY7  -0.2046 
  7 C13    -22.3777     8.6619    38.4019 C.2   1 AY7   0.5438 
  8 C16    -21.9722     9.9899    36.2984 C.ar  1 AY7   0.1170 
  9 C17    -21.8162    11.2645    36.8984 C.ar  1 AY7  -0.1500 
 10 H17    -21.8638    11.3638    37.9728 H     1 AY7   0.1500 
 11 C18    -21.6009    12.3937    36.1021 C.ar  1 AY7  -0.1500 
 12 H18    -21.5421    13.3703    36.5596 H     1 AY7   0.1500 
 13 C19    -21.4597    12.2639    34.7000 C.ar  1 AY7   0.0825 
 14 C20    -21.5548    10.9912    34.0948 C.ar  1 AY7  -0.1500 
 15 H20    -21.4545    10.8842    33.0248 H     1 AY7   0.1500 
 16 C21    -21.7817     9.8670    34.9051 C.ar  1 AY7  -0.1500 
 17 H21    -21.8112     8.8869    34.4524 H     1 AY7   0.1500 
 18 C26    -18.3566     2.9576    37.9355 C.2   1 AY7   0.1388 
 19 H26    -17.4455     2.3973    38.0851 H     1 AY7   0.1500 
 20 C27    -19.0729     3.7638    38.9388 C.2   1 AY7  -0.1500 
 21 H27    -18.7998     3.9346    39.9696 H     1 AY7   0.1500 
 22 C28    -19.8788    13.9939    33.8688 C.3   1 AY7   1.2500 
 23 N2     -22.0335     3.4165    40.4658 N.pl3 1 AY7  -0.8382 
 24 C4     -22.6674     2.0944    42.1909 C.3   1 AY7   0.2000 
 25 H4     -23.5712     2.5691    42.5729 H     1 AY7   0.0800 
 26 C5     -22.9823     1.3190    40.8825 C.3   1 AY7  -0.1600 
 27 H51    -24.0478     1.0987    40.8167 H     1 AY7   0.0800 
 28 H52    -22.4160     0.3884    40.8450 H     1 AY7   0.0800 
 29 C6     -22.5514     2.2632    39.7306 C.3   1 AY7   0.2091 
 30 H61    -21.7784     1.8072    39.1121 H     1 AY7   0.0800 
 31 H62    -23.4006     2.5398    39.1057 H     1 AY7   0.0800 
 32 N7     -22.9742     5.5391    40.4836 N.ar  1 AY7  -0.6200 
 33 C8     -23.1121     6.8125    40.0454 C.ar  1 AY7   0.1600 
 34 H8     -23.8404     7.4669    40.5012 H     1 AY7   0.1500 
 35 C9     -22.3024     7.2802    38.9931 C.ar  1 AY7   0.0862 
 36 C10    -21.3481     6.4085    38.4353 C.ar  1 AY7  -0.1500 
 37 H10    -20.7180     6.7552    37.6296 H     1 AY7   0.1500 
 38 N14    -22.0867     8.8003    37.0735 N.am  1 AY7  -0.5470 
 39 H14    -21.9310     7.9381    36.5711 H     1 AY7   0.3700 
 40 O15    -22.7507     9.5598    39.1504 O.2   1 AY7  -0.5700 
 41 O22    -21.1975    13.4236    33.9578 O.3   1 AY7  -0.3625 
 42 O23    -22.2147     1.2569    43.2709 O.3   1 AY7  -0.6800 
 43 H23    -22.9123     0.6254    43.4606 H     1 AY7   0.4000 
 44 N24    -20.1432     3.7922    37.0489 N.pl3 1 AY7   0.2996 
 45 H24    -20.8592     3.9710    36.3593 H     1 AY7   0.2700 
 46 N25    -19.0283     3.0536    36.8532 N.2   1 AY7  -0.7068 
 47 F29    -20.0177    15.0989    33.0835 F     1 AY7  -0.3400 
 48 F30    -19.4288    14.3730    35.0831 F     1 AY7  -0.3400 
 49 CL     -18.6404    12.8341    33.2435 Cl    1 AY7  -0.2900 
@<TRIPOS>BOND
  1   1   5  ar  
  2   1  23  1   
  3   1  32  ar  
  4   2   3  1   
  5   2   4  1   
  6   2  23  1   
  7   2  24  1   
  8   5   6  1   
  9   5  36  ar  
 10   6  20  2   
 11   6  44  1   
 12   7  35  1   
 13   7  38  am  
 14   7  40  2   
 15   8   9  ar  
 16   8  16  ar  
 17   8  38  1   
 18   9  10  1   
 19   9  11  ar  
 20  11  12  1   
 21  11  13  ar  
 22  13  14  ar  
 23  13  41  1   
 24  14  15  1   
 25  14  16  ar  
 26  16  17  1   
 27  18  19  1   
 28  18  20  1   
 29  18  46  2   
 30  20  21  1   
 31  22  41  1   
 32  22  47  1   
 33  22  48  1   
 34  22  49  1   
 35  23  29  1   
 36  24  25  1   
 37  24  26  1   
 38  24  42  1   
 39  26  27  1   
 40  26  28  1   
 41  26  29  1   
 42  29  30  1   
 43  29  31  1   
 44  32  33  ar  
 45  33  34  1   
 46  33  35  ar  
 47  35  36  ar  
 48  36  37  1   
 49  38  39  1   
 50  42  43  1   
 51  44  45  1   
 52  44  46  1   
@<TRIPOS>SUBSTRUCTURE
  1 AY7  36 GROUP 4 A **** 0

# MOE 2012.10 (io_trps.svl 2012.10)
