@<TRIPOS>MOLECULE
5mo4.A
61 65 1 0 0 
SMALL
USER_CHARGES


@<TRIPOS>ATOM
  1 O17      1.4833    22.1323    35.1237 O.2   1 NIL  -0.5700 
  2 C16      2.5355    22.7598    35.0872 C.2   1 NIL   0.5438 
  3 N14      2.9825    23.4359    33.9842 N.am  1 NIL  -0.5470 
  4 H14      3.8517    23.9380    34.0953 H     1 NIL   0.3700 
  5 C11      2.3797    23.5183    32.7115 C.ar  1 NIL   0.1170 
  6 C9       3.1861    23.6007    31.5662 C.ar  1 NIL  -0.1500 
  7 H9       4.2597    23.5311    31.6606 H     1 NIL   0.1500 
  8 C8       2.6035    23.7741    30.2885 C.ar  1 NIL  -0.0230 
  9 N51      3.4095    23.7992    29.1773 N.pl3 1 NIL   0.3262 
 10 C56      4.5955    24.3827    29.0885 C.2   1 NIL  -0.3016 
 11 H56      5.0783    24.9358    29.8806 H     1 NIL   0.1500 
 12 C55      5.1070    24.1804    27.8588 C.2   1 NIL   0.0462 
 13 C58      6.4130    24.6187    27.2517 C.3   1 NIL  -0.0590 
 14 H581     6.9808    25.1910    27.9853 H     1 NIL   0.0800 
 15 H582     6.2171    25.2407    26.3783 H     1 NIL   0.0800 
 16 H583     6.9867    23.7417    26.9519 H     1 NIL   0.0800 
 17 N54      4.0760    23.4095    27.2276 N.2   1 NIL  -0.5653 
 18 C52      3.1402    23.2247    28.0358 C.2   1 NIL   0.0365 
 19 H52      2.2388    22.6699    27.8209 H     1 NIL   0.1500 
 20 C6       1.1911    23.8874    30.1872 C.ar  1 NIL  -0.1500 
 21 H6       0.7375    24.0345    29.2182 H     1 NIL   0.1500 
 22 C12      0.9860    23.6632    32.5942 C.ar  1 NIL  -0.1500 
 23 H12      0.3764    23.6616    33.4857 H     1 NIL   0.1500 
 24 C5       0.3696    23.8105    31.3362 C.ar  1 NIL  -0.1435 
 25 C2      -1.1671    23.9073    31.2388 C.3   1 NIL   1.1635 
 26 F4      -1.6072    24.3955    30.0513 F     1 NIL  -0.3400 
 27 F3      -1.7216    22.6790    31.3764 F     1 NIL  -0.3400 
 28 F1      -1.6413    24.6686    32.2643 F     1 NIL  -0.3400 
 29 C18      3.3329    22.8754    36.3702 C.ar  1 NIL   0.0862 
 30 C25      4.4994    23.6538    36.4474 C.ar  1 NIL  -0.1500 
 31 H25      4.8871    24.1221    35.5548 H     1 NIL   0.1500 
 32 C23      5.1671    23.8311    37.6662 C.ar  1 NIL  -0.1500 
 33 H23      6.0586    24.4393    37.7068 H     1 NIL   0.1500 
 34 C22      4.6843    23.2236    38.8325 C.ar  1 NIL  -0.1435 
 35 C27      5.4368    23.4243    40.1548 C.3   1 NIL  -0.0965 
 36 H271     6.2943    24.0766    39.9894 H     1 NIL   0.0800 
 37 H272     5.7808    22.4594    40.5272 H     1 NIL   0.0800 
 38 H273     4.7698    23.8795    40.8869 H     1 NIL   0.0800 
 39 C21      3.5328    22.4221    38.7609 C.ar  1 NIL   0.1000 
 40 C19      2.8249    22.3133    37.5537 C.ar  1 NIL  -0.1500 
 41 H19      1.8794    21.7917    37.5342 H     1 NIL   0.1500 
 42 N31      3.0239    21.9003    39.9013 N.pl3 1 NIL  -0.6000 
 43 H31      2.8297    22.5561    40.6445 H     1 NIL   0.4000 
 44 C33      2.7477    20.6150    40.1590 C.ar  1 NIL   0.7200 
 45 N40      3.1906    19.5773    39.4087 N.ar  1 NIL  -0.6200 
 46 C38      2.8965    18.2979    39.7752 C.ar  1 NIL   0.1600 
 47 H38      3.3109    17.4711    39.2175 H     1 NIL   0.1500 
 48 C36      2.0565    18.0479    40.8757 C.ar  1 NIL  -0.1500 
 49 H36      1.7523    17.0436    41.1311 H     1 NIL   0.1500 
 50 C35      1.6265    19.1571    41.6329 C.ar  1 NIL   0.3100 
 51 N34      1.9745    20.4024    41.2372 N.ar  1 NIL  -0.6200 
 52 C41      0.8355    19.0373    42.8763 C.ar  1 NIL   0.0000 
 53 C49      0.6156    17.7712    43.4518 C.ar  1 NIL  -0.1500 
 54 H49      1.0154    16.8873    42.9773 H     1 NIL   0.1500 
 55 C47     -0.1191    17.6552    44.6364 C.ar  1 NIL  -0.1500 
 56 H47     -0.3079    16.6897    45.0819 H     1 NIL   0.1500 
 57 C45     -0.6023    18.8292    45.2268 C.ar  1 NIL   0.1600 
 58 H45     -1.1255    18.7719    46.1699 H     1 NIL   0.1500 
 59 N44     -0.4248    20.0401    44.6342 N.ar  1 NIL  -0.6200 
 60 C42      0.3010    20.1747    43.4980 C.ar  1 NIL   0.1600 
 61 H42      0.4671    21.1537    43.0732 H     1 NIL   0.1500 
@<TRIPOS>BOND
  1   1   2  2   
  2   2   3  am  
  3   2  29  1   
  4   3   4  1   
  5   3   5  1   
  6   5   6  ar  
  7   5  22  ar  
  8   6   7  1   
  9   6   8  ar  
 10   8   9  1   
 11   8  20  ar  
 12   9  10  1   
 13   9  18  1   
 14  10  11  1   
 15  10  12  2   
 16  12  13  1   
 17  12  17  1   
 18  13  14  1   
 19  13  15  1   
 20  13  16  1   
 21  17  18  2   
 22  18  19  1   
 23  20  21  1   
 24  20  24  ar  
 25  22  23  1   
 26  22  24  ar  
 27  24  25  1   
 28  25  26  1   
 29  25  27  1   
 30  25  28  1   
 31  29  30  ar  
 32  29  40  ar  
 33  30  31  1   
 34  30  32  ar  
 35  32  33  1   
 36  32  34  ar  
 37  34  35  1   
 38  34  39  ar  
 39  35  36  1   
 40  35  37  1   
 41  35  38  1   
 42  39  40  ar  
 43  39  42  1   
 44  40  41  1   
 45  42  43  1   
 46  42  44  1   
 47  44  45  ar  
 48  44  51  ar  
 49  45  46  ar  
 50  46  47  1   
 51  46  48  ar  
 52  48  49  1   
 53  48  50  ar  
 54  50  51  ar  
 55  50  52  1   
 56  52  53  ar  
 57  52  60  ar  
 58  53  54  1   
 59  53  55  ar  
 60  55  56  1   
 61  55  57  ar  
 62  57  58  1   
 63  57  59  ar  
 64  59  60  ar  
 65  60  61  1   
@<TRIPOS>SUBSTRUCTURE
  1 NIL   1 GROUP 4 A **** 0

# MOE 2012.10 (io_trps.svl 2012.10)
