@<TRIPOS>MOLECULE
5mo4.A
921 614 307 0 0 
SMALL
USER_CHARGES


@<TRIPOS>ATOM
  1 O      -18.4814     6.7725    16.1430 O.3     1 HOH   0.0000 
  2 H1     -17.5214     6.7725    16.1430 H       1 HOH   0.0000 
  3 H2     -18.7716     7.4195    16.7901 H       1 HOH   0.0000 
  4 O        1.2620    43.5137    27.8097 O.3     2 HOH   0.0000 
  5 H1       2.2220    43.5137    27.8097 H       2 HOH   0.0000 
  6 H2       0.9717    44.1608    28.4567 H       2 HOH   0.0000 
  7 O      -13.1645    55.1998    45.5911 O.3     3 HOH   0.0000 
  8 H1     -12.2045    55.1998    45.5911 H       3 HOH   0.0000 
  9 H2     -13.4547    55.8468    46.2381 H       3 HOH   0.0000 
 10 O      -15.9477    25.4239    44.4483 O.3     4 HOH   0.0000 
 11 H1     -14.9877    25.4239    44.4483 H       4 HOH   0.0000 
 12 H2     -16.2380    26.0709    45.0953 H       4 HOH   0.0000 
 13 O       -0.2820    32.0300    34.8410 O.3     5 HOH   0.0000 
 14 H1       0.6780    32.0300    34.8410 H       5 HOH   0.0000 
 15 H2      -0.5723    32.6771    35.4880 H       5 HOH   0.0000 
 16 O        5.2910    20.6000    34.6107 O.3     6 HOH  -0.8340 
 17 H1       5.3265    21.4307    34.1364 H       6 HOH   0.4170 
 18 H2       4.4278    20.2420    34.4036 H       6 HOH   0.4170 
 19 O      -21.4006    34.1254    50.5844 O.3     7 HOH   0.0000 
 20 H1     -20.4406    34.1254    50.5844 H       7 HOH   0.0000 
 21 H2     -21.6909    34.7725    51.2314 H       7 HOH   0.0000 
 22 O      -39.7154    49.5113    33.4041 O.3     8 HOH   0.0000 
 23 H1     -38.7554    49.5113    33.4041 H       8 HOH   0.0000 
 24 H2     -40.0057    50.1583    34.0511 H       8 HOH   0.0000 
 25 O       -8.9079     6.6637    22.9048 O.3     9 HOH   0.0000 
 26 H1      -7.9479     6.6637    22.9048 H       9 HOH   0.0000 
 27 H2      -9.1982     7.3108    23.5519 H       9 HOH   0.0000 
 28 O      -14.7371    22.5152    26.4378 O.3    10 HOH   0.0000 
 29 H1     -13.7771    22.5152    26.4378 H      10 HOH   0.0000 
 30 H2     -15.0274    23.1623    27.0848 H      10 HOH   0.0000 
 31 O      -19.8283    15.7434    16.5895 O.3    11 HOH   0.0000 
 32 H1     -18.8683    15.7434    16.5895 H      11 HOH   0.0000 
 33 H2     -20.1186    16.3904    17.2366 H      11 HOH   0.0000 
 34 O       -7.4967    58.8503    42.6042 O.3    12 HOH   0.0000 
 35 H1      -6.5367    58.8503    42.6042 H      12 HOH   0.0000 
 36 H2      -7.7870    59.4973    43.2513 H      12 HOH   0.0000 
 37 O       -5.6520     9.8071    33.7312 O.3    13 HOH   0.0000 
 38 H1      -4.6920     9.8071    33.7312 H      13 HOH   0.0000 
 39 H2      -5.9423    10.4541    34.3783 H      13 HOH   0.0000 
 40 O       -6.4876    34.4159    45.5746 O.3    14 HOH   0.0000 
 41 H1      -5.5276    34.4159    45.5746 H      14 HOH   0.0000 
 42 H2      -6.7778    35.0630    46.2217 H      14 HOH   0.0000 
 43 O      -21.5487     6.6530    35.0263 O.3    15 HOH  -0.8340 
 44 H1     -21.7135     5.7751    35.3703 H      15 HOH   0.4170 
 45 H2     -20.5962     6.7452    35.0500 H      15 HOH   0.4170 
 46 O       -6.9206     5.7167    21.4207 O.3    16 HOH   0.0000 
 47 H1      -5.9606     5.7167    21.4207 H      16 HOH   0.0000 
 48 H2      -7.2109     6.3637    22.0677 H      16 HOH   0.0000 
 49 O       -6.9076    47.6894    56.0176 O.3    17 HOH   0.0000 
 50 H1      -5.9476    47.6894    56.0176 H      17 HOH   0.0000 
 51 H2      -7.1979    48.3364    56.6646 H      17 HOH   0.0000 
 52 O       -5.4047    35.3626    29.1073 O.3    18 HOH   0.0000 
 53 H1      -4.4447    35.3626    29.1073 H      18 HOH   0.0000 
 54 H2      -5.6950    36.0097    29.7544 H      18 HOH   0.0000 
 55 O        7.3367    46.1384    36.3600 O.3    19 HOH   0.0000 
 56 H1       8.2967    46.1384    36.3600 H      19 HOH   0.0000 
 57 H2       7.0464    46.7854    37.0070 H      19 HOH   0.0000 
 58 O        7.2715    14.3609    42.8215 O.3    20 HOH   0.0000 
 59 H1       8.2315    14.3609    42.8215 H      20 HOH   0.0000 
 60 H2       6.9812    15.0079    43.4686 H      20 HOH   0.0000 
 61 O        0.2320    21.5241    27.8439 O.3    21 HOH  -0.8340 
 62 H1      -0.3364    20.8049    27.5687 H      21 HOH   0.4170 
 63 H2       1.0667    21.1043    28.0521 H      21 HOH   0.4170 
 64 O       -3.6459    16.3501    21.5675 O.3    22 HOH   0.0000 
 65 H1      -2.6859    16.3501    21.5675 H      22 HOH   0.0000 
 66 H2      -3.9362    16.9971    22.2145 H      22 HOH   0.0000 
 67 O      -37.4213    17.8556    48.2569 O.3    23 HOH   0.0000 
 68 H1     -36.4613    17.8556    48.2569 H      23 HOH   0.0000 
 69 H2     -37.7116    18.5026    48.9039 H      23 HOH   0.0000 
 70 O      -14.8724    27.8781    36.2253 O.3    24 HOH   0.0000 
 71 H1     -13.9124    27.8781    36.2253 H      24 HOH   0.0000 
 72 H2     -15.1626    28.5251    36.8724 H      24 HOH   0.0000 
 73 O       -1.2622    28.4941    41.4235 O.3    25 HOH   0.0000 
 74 H1      -0.3022    28.4941    41.4235 H      25 HOH   0.0000 
 75 H2      -1.5525    29.1412    42.0705 H      25 HOH   0.0000 
 76 O        5.7809    17.0798    37.3773 O.3    26 HOH  -0.8340 
 77 H1       5.6840    18.0258    37.2678 H      26 HOH   0.4170 
 78 H2       6.7063    16.9561    37.5882 H      26 HOH   0.4170 
 79 O        4.8318    40.3981    28.9639 O.3    27 HOH   0.0000 
 80 H1       5.7918    40.3981    28.9639 H      27 HOH   0.0000 
 81 H2       4.5415    41.0452    29.6109 H      27 HOH   0.0000 
 82 O        8.4637    33.9494    53.2563 O.3    28 HOH   0.0000 
 83 H1       9.4237    33.9494    53.2563 H      28 HOH   0.0000 
 84 H2       8.1734    34.5964    53.9033 H      28 HOH   0.0000 
 85 O      -42.6964    38.4087    57.3183 O.3    29 HOH   0.0000 
 86 H1     -41.7364    38.4087    57.3183 H      29 HOH   0.0000 
 87 H2     -42.9867    39.0557    57.9653 H      29 HOH   0.0000 
 88 O       -0.5987    33.3992    37.1318 O.3    30 HOH   0.0000 
 89 H1       0.3613    33.3992    37.1318 H      30 HOH   0.0000 
 90 H2      -0.8889    34.0463    37.7789 H      30 HOH   0.0000 
 91 O      -12.0017    23.2159    17.9452 O.3    31 HOH   0.0000 
 92 H1     -11.0417    23.2159    17.9452 H      31 HOH   0.0000 
 93 H2     -12.2920    23.8629    18.5923 H      31 HOH   0.0000 
 94 O       -2.3306    25.9317    41.7710 O.3    32 HOH   0.0000 
 95 H1      -1.3706    25.9317    41.7710 H      32 HOH   0.0000 
 96 H2      -2.6209    26.5787    42.4181 H      32 HOH   0.0000 
 97 O       -5.8863    12.6206    21.8223 O.3    33 HOH   0.0000 
 98 H1      -4.9263    12.6206    21.8223 H      33 HOH   0.0000 
 99 H2      -6.1766    13.2676    22.4693 H      33 HOH   0.0000 
100 O       -8.8306    10.1990    12.3229 O.3    34 HOH   0.0000 
101 H1      -7.8706    10.1990    12.3229 H      34 HOH   0.0000 
102 H2      -9.1209    10.8461    12.9699 H      34 HOH   0.0000 
103 O       -2.3224    39.7051    38.9789 O.3    35 HOH   0.0000 
104 H1      -1.3624    39.7051    38.9789 H      35 HOH   0.0000 
105 H2      -2.6127    40.3522    39.6259 H      35 HOH   0.0000 
106 O      -41.4265    24.7259    44.4620 O.3    36 HOH   0.0000 
107 H1     -40.4665    24.7259    44.4620 H      36 HOH   0.0000 
108 H2     -41.7168    25.3730    45.1091 H      36 HOH   0.0000 
109 O      -32.7288    47.4012    49.1846 O.3    37 HOH   0.0000 
110 H1     -31.7688    47.4012    49.1846 H      37 HOH   0.0000 
111 H2     -33.0191    48.0482    49.8317 H      37 HOH   0.0000 
112 O       -1.0101    25.7567    18.2716 O.3    38 HOH   0.0000 
113 H1      -0.0501    25.7567    18.2716 H      38 HOH   0.0000 
114 H2      -1.3003    26.4037    18.9187 H      38 HOH   0.0000 
115 O       -5.5450    35.4997    49.6251 O.3    39 HOH   0.0000 
116 H1      -4.5850    35.4997    49.6251 H      39 HOH   0.0000 
117 H2      -5.8353    36.1468    50.2722 H      39 HOH   0.0000 
118 O      -23.1492    23.4286    22.4716 O.3    40 HOH   0.0000 
119 H1     -22.1892    23.4286    22.4716 H      40 HOH   0.0000 
120 H2     -23.4395    24.0756    23.1186 H      40 HOH   0.0000 
121 O        1.7440    21.7186    24.5459 O.3    41 HOH  -0.8340 
122 H1       2.3568    22.0837    25.1841 H      41 HOH   0.4170 
123 H2       1.2922    21.0200    25.0194 H      41 HOH   0.4170 
124 O      -20.4801    42.6417    52.4899 O.3    42 HOH   0.0000 
125 H1     -19.5201    42.6417    52.4899 H      42 HOH   0.0000 
126 H2     -20.7704    43.2888    53.1369 H      42 HOH   0.0000 
127 O      -13.8097    -1.1329    26.4860 O.3    43 HOH   0.0000 
128 H1     -12.8497    -1.1329    26.4860 H      43 HOH   0.0000 
129 H2     -14.1000    -0.4858    27.1330 H      43 HOH   0.0000 
130 O      -26.6761    37.6597    54.4841 O.3    44 HOH   0.0000 
131 H1     -25.7161    37.6597    54.4841 H      44 HOH   0.0000 
132 H2     -26.9664    38.3068    55.1311 H      44 HOH   0.0000 
133 O        8.4152    30.5452    54.0309 O.3    45 HOH   0.0000 
134 H1       9.3752    30.5452    54.0309 H      45 HOH   0.0000 
135 H2       8.1249    31.1922    54.6779 H      45 HOH   0.0000 
136 O      -24.2575    39.1515    38.2671 O.3    46 HOH   0.0000 
137 H1     -23.2975    39.1515    38.2671 H      46 HOH   0.0000 
138 H2     -24.5478    39.7985    38.9142 H      46 HOH   0.0000 
139 O      -30.5058    33.1252    36.2695 O.3    47 HOH   0.0000 
140 H1     -29.5458    33.1252    36.2695 H      47 HOH   0.0000 
141 H2     -30.7961    33.7723    36.9166 H      47 HOH   0.0000 
142 O      -27.5737    27.8790    34.1052 O.3    48 HOH   0.0000 
143 H1     -26.6137    27.8790    34.1052 H      48 HOH   0.0000 
144 H2     -27.8640    28.5260    34.7523 H      48 HOH   0.0000 
145 O       23.0447    14.8765    37.2930 O.3    49 HOH   0.0000 
146 H1      24.0047    14.8765    37.2930 H      49 HOH   0.0000 
147 H2      22.7544    15.5235    37.9401 H      49 HOH   0.0000 
148 O      -18.2739    58.1583    48.4528 O.3    50 HOH   0.0000 
149 H1     -17.3139    58.1583    48.4528 H      50 HOH   0.0000 
150 H2     -18.5641    58.8054    49.0999 H      50 HOH   0.0000 
151 O       13.9040    27.7194    49.0605 O.3    51 HOH   0.0000 
152 H1      14.8640    27.7194    49.0605 H      51 HOH   0.0000 
153 H2      13.6138    28.3665    49.7075 H      51 HOH   0.0000 
154 O       -0.9768    29.7008    21.3525 O.3    52 HOH   0.0000 
155 H1      -0.0168    29.7008    21.3525 H      52 HOH   0.0000 
156 H2      -1.2671    30.3479    21.9995 H      52 HOH   0.0000 
157 O      -17.1268    26.6997    18.1433 O.3    53 HOH   0.0000 
158 H1     -16.1668    26.6997    18.1433 H      53 HOH   0.0000 
159 H2     -17.4170    27.3467    18.7904 H      53 HOH   0.0000 
160 O       -5.5019     0.1642     9.3220 O.3    54 HOH   0.0000 
161 H1      -4.5419     0.1642     9.3220 H      54 HOH   0.0000 
162 H2      -5.7922     0.8113     9.9691 H      54 HOH   0.0000 
163 O      -45.5945    45.7473    39.6518 O.3    55 HOH   0.0000 
164 H1     -44.6345    45.7473    39.6518 H      55 HOH   0.0000 
165 H2     -45.8847    46.3943    40.2988 H      55 HOH   0.0000 
166 O      -27.3372    40.9806    53.0228 O.3    56 HOH   0.0000 
167 H1     -26.3772    40.9806    53.0228 H      56 HOH   0.0000 
168 H2     -27.6275    41.6277    53.6699 H      56 HOH   0.0000 
169 O      -29.3017    13.4837    20.2712 O.3    57 HOH   0.0000 
170 H1     -28.3417    13.4837    20.2712 H      57 HOH   0.0000 
171 H2     -29.5920    14.1308    20.9183 H      57 HOH   0.0000 
172 O      -43.6317    46.6821    46.9766 O.3    58 HOH   0.0000 
173 H1     -42.6717    46.6821    46.9766 H      58 HOH   0.0000 
174 H2     -43.9220    47.3291    47.6236 H      58 HOH   0.0000 
175 O        0.9512    48.1498    36.5941 O.3    59 HOH   0.0000 
176 H1       1.9112    48.1498    36.5941 H      59 HOH   0.0000 
177 H2       0.6609    48.7968    37.2412 H      59 HOH   0.0000 
178 O      -12.7906    21.2919    50.3803 O.3    60 HOH   0.0000 
179 H1     -11.8306    21.2919    50.3803 H      60 HOH   0.0000 
180 H2     -13.0808    21.9389    51.0274 H      60 HOH   0.0000 
181 O       -1.8906    28.0548    49.8227 O.3    61 HOH   0.0000 
182 H1      -0.9306    28.0548    49.8227 H      61 HOH   0.0000 
183 H2      -2.1809    28.7019    50.4698 H      61 HOH   0.0000 
184 O      -32.1272    27.4435    36.1507 O.3    62 HOH   0.0000 
185 H1     -31.1672    27.4435    36.1507 H      62 HOH   0.0000 
186 H2     -32.4175    28.0905    36.7978 H      62 HOH   0.0000 
187 O        9.8442    36.0897    47.5148 O.3    63 HOH   0.0000 
188 H1      10.8042    36.0897    47.5148 H      63 HOH   0.0000 
189 H2       9.5540    36.7367    48.1618 H      63 HOH   0.0000 
190 O       -8.5318    40.8345    40.2515 O.3    64 HOH   0.0000 
191 H1      -7.5718    40.8345    40.2515 H      64 HOH   0.0000 
192 H2      -8.8221    41.4815    40.8985 H      64 HOH   0.0000 
193 O      -32.4898    20.1699    40.8439 O.3    65 HOH   0.0000 
194 H1     -31.5298    20.1699    40.8439 H      65 HOH   0.0000 
195 H2     -32.7801    20.8169    41.4910 H      65 HOH   0.0000 
196 O       -6.6360    22.8121    23.4858 O.3    66 HOH   0.0000 
197 H1      -5.6760    22.8121    23.4858 H      66 HOH   0.0000 
198 H2      -6.9263    23.4592    24.1328 H      66 HOH   0.0000 
199 O        0.5254    39.4540    47.1756 O.3    67 HOH   0.0000 
200 H1       1.4854    39.4540    47.1756 H      67 HOH   0.0000 
201 H2       0.2351    40.1010    47.8226 H      67 HOH   0.0000 
202 O      -22.4423     9.7698    41.8589 O.3    68 HOH  -0.8340 
203 H1     -22.5569     9.7872    40.9088 H      68 HOH   0.4170 
204 H2     -21.5769     9.3821    41.9892 H      68 HOH   0.4170 
205 O      -18.9116    28.2206    25.2372 O.3    69 HOH   0.0000 
206 H1     -17.9516    28.2206    25.2372 H      69 HOH   0.0000 
207 H2     -19.2019    28.8677    25.8842 H      69 HOH   0.0000 
208 O      -28.8204    18.6227    43.0261 O.3    70 HOH   0.0000 
209 H1     -27.8604    18.6227    43.0261 H      70 HOH   0.0000 
210 H2     -29.1107    19.2698    43.6731 H      70 HOH   0.0000 
211 O      -11.4178    -0.5643    33.5966 O.3    71 HOH   0.0000 
212 H1     -10.4578    -0.5643    33.5966 H      71 HOH   0.0000 
213 H2     -11.7081     0.0828    34.2437 H      71 HOH   0.0000 
214 O       -4.4088    -1.4892    16.2942 O.3    72 HOH   0.0000 
215 H1      -3.4488    -1.4892    16.2942 H      72 HOH   0.0000 
216 H2      -4.6991    -0.8422    16.9412 H      72 HOH   0.0000 
217 O       -0.7601    12.2597    38.1457 O.3    73 HOH   0.0000 
218 H1       0.1999    12.2597    38.1457 H      73 HOH   0.0000 
219 H2      -1.0503    12.9068    38.7927 H      73 HOH   0.0000 
220 O      -11.0239    31.3456    51.2220 O.3    74 HOH   0.0000 
221 H1     -10.0639    31.3456    51.2220 H      74 HOH   0.0000 
222 H2     -11.3141    31.9927    51.8690 H      74 HOH   0.0000 
223 O      -25.9494    23.7087    23.8120 O.3    75 HOH   0.0000 
224 H1     -24.9894    23.7087    23.8120 H      75 HOH   0.0000 
225 H2     -26.2397    24.3557    24.4591 H      75 HOH   0.0000 
226 O      -14.3574    26.1338    40.5370 O.3    76 HOH   0.0000 
227 H1     -13.3974    26.1338    40.5370 H      76 HOH   0.0000 
228 H2     -14.6477    26.7808    41.1841 H      76 HOH   0.0000 
229 O       -9.0567    29.5442    40.4718 O.3    77 HOH   0.0000 
230 H1      -8.0967    29.5442    40.4718 H      77 HOH   0.0000 
231 H2      -9.3470    30.1913    41.1188 H      77 HOH   0.0000 
232 O      -17.6939    22.6863    48.8737 O.3    78 HOH   0.0000 
233 H1     -16.7339    22.6863    48.8737 H      78 HOH   0.0000 
234 H2     -17.9842    23.3334    49.5207 H      78 HOH   0.0000 
235 O        1.7132    17.8971    26.7240 O.3    79 HOH  -0.8340 
236 H1       1.7356    18.2556    27.6112 H      79 HOH   0.4170 
237 H2       1.0625    18.4294    26.2664 H      79 HOH   0.4170 
238 O      -28.1374    16.1438    43.8517 O.3    80 HOH   0.0000 
239 H1     -27.1774    16.1438    43.8517 H      80 HOH   0.0000 
240 H2     -28.4277    16.7908    44.4987 H      80 HOH   0.0000 
241 O      -17.1924    36.8894    44.5576 O.3    81 HOH   0.0000 
242 H1     -16.2324    36.8894    44.5576 H      81 HOH   0.0000 
243 H2     -17.4826    37.5365    45.2047 H      81 HOH   0.0000 
244 O      -12.3253     3.3893    40.8294 O.3    82 HOH   0.0000 
245 H1     -11.3653     3.3893    40.8294 H      82 HOH   0.0000 
246 H2     -12.6156     4.0363    41.4764 H      82 HOH   0.0000 
247 O      -38.7794    43.0757    52.3676 O.3    83 HOH   0.0000 
248 H1     -37.8194    43.0757    52.3676 H      83 HOH   0.0000 
249 H2     -39.0697    43.7228    53.0146 H      83 HOH   0.0000 
250 O      -20.5196    13.3001    13.3042 O.3    84 HOH   0.0000 
251 H1     -19.5596    13.3001    13.3042 H      84 HOH   0.0000 
252 H2     -20.8099    13.9471    13.9513 H      84 HOH   0.0000 
253 O      -38.5828    41.6736    58.6686 O.3    85 HOH   0.0000 
254 H1     -37.6228    41.6736    58.6686 H      85 HOH   0.0000 
255 H2     -38.8731    42.3206    59.3157 H      85 HOH   0.0000 
256 O      -42.3526    37.1359    45.4152 O.3    86 HOH   0.0000 
257 H1     -41.3926    37.1359    45.4152 H      86 HOH   0.0000 
258 H2     -42.6428    37.7830    46.0622 H      86 HOH   0.0000 
259 O      -40.5839    32.0574    39.4323 O.3    87 HOH   0.0000 
260 H1     -39.6239    32.0574    39.4323 H      87 HOH   0.0000 
261 H2     -40.8742    32.7044    40.0793 H      87 HOH   0.0000 
262 O        0.2939    29.2672    34.3610 O.3    88 HOH   0.0000 
263 H1       1.2539    29.2672    34.3610 H      88 HOH   0.0000 
264 H2       0.0036    29.9143    35.0081 H      88 HOH   0.0000 
265 O       -4.8722    38.7814    38.6616 O.3    89 HOH   0.0000 
266 H1      -3.9122    38.7814    38.6616 H      89 HOH   0.0000 
267 H2      -5.1624    39.4285    39.3086 H      89 HOH   0.0000 
268 O      -12.9283    28.4297    22.5163 O.3    90 HOH   0.0000 
269 H1     -11.9683    28.4297    22.5163 H      90 HOH   0.0000 
270 H2     -13.2186    29.0768    23.1634 H      90 HOH   0.0000 
271 O       17.7930    18.3226    33.2809 O.3    91 HOH   0.0000 
272 H1      18.7530    18.3226    33.2809 H      91 HOH   0.0000 
273 H2      17.5027    18.9697    33.9279 H      91 HOH   0.0000 
274 O      -31.3510    19.4056    52.7464 O.3    92 HOH   0.0000 
275 H1     -30.3910    19.4056    52.7464 H      92 HOH   0.0000 
276 H2     -31.6412    20.0527    53.3935 H      92 HOH   0.0000 
277 O      -40.6804    47.0217    48.1258 O.3    93 HOH   0.0000 
278 H1     -39.7204    47.0217    48.1258 H      93 HOH   0.0000 
279 H2     -40.9707    47.6688    48.7729 H      93 HOH   0.0000 
280 O      -44.9417    28.4125    49.6231 O.3    94 HOH   0.0000 
281 H1     -43.9817    28.4125    49.6231 H      94 HOH   0.0000 
282 H2     -45.2320    29.0595    50.2702 H      94 HOH   0.0000 
283 O      -16.2588    11.0027    11.8147 O.3    95 HOH   0.0000 
284 H1     -15.2988    11.0027    11.8147 H      95 HOH   0.0000 
285 H2     -16.5491    11.6498    12.4617 H      95 HOH   0.0000 
286 O      -34.5364    34.5729    58.2165 O.3    96 HOH   0.0000 
287 H1     -33.5764    34.5729    58.2165 H      96 HOH   0.0000 
288 H2     -34.8267    35.2200    58.8636 H      96 HOH   0.0000 
289 O      -15.6616    27.2810    54.1055 O.3    97 HOH   0.0000 
290 H1     -14.7016    27.2810    54.1055 H      97 HOH   0.0000 
291 H2     -15.9519    27.9280    54.7526 H      97 HOH   0.0000 
292 O      -34.3977    47.3245    41.7596 O.3    98 HOH   0.0000 
293 H1     -33.4377    47.3245    41.7596 H      98 HOH   0.0000 
294 H2     -34.6880    47.9715    42.4067 H      98 HOH   0.0000 
295 O      -27.7307    31.5871    36.1942 O.3    99 HOH   0.0000 
296 H1     -26.7707    31.5871    36.1942 H      99 HOH   0.0000 
297 H2     -28.0210    32.2341    36.8412 H      99 HOH   0.0000 
298 O      -35.6414    27.5228    55.4946 O.3   100 HOH   0.0000 
299 H1     -34.6814    27.5228    55.4946 H     100 HOH   0.0000 
300 H2     -35.9317    28.1699    56.1417 H     100 HOH   0.0000 
301 O      -31.8090    40.9469    52.0812 O.3   101 HOH   0.0000 
302 H1     -30.8490    40.9469    52.0812 H     101 HOH   0.0000 
303 H2     -32.0993    41.5940    52.7283 H     101 HOH   0.0000 
304 O      -17.9610    27.1345    33.6181 O.3   102 HOH   0.0000 
305 H1     -17.0010    27.1345    33.6181 H     102 HOH   0.0000 
306 H2     -18.2513    27.7815    34.2652 H     102 HOH   0.0000 
307 O      -22.0480    53.0853    57.4377 O.3   103 HOH   0.0000 
308 H1     -21.0880    53.0853    57.4377 H     103 HOH   0.0000 
309 H2     -22.3383    53.7323    58.0847 H     103 HOH   0.0000 
310 O      -36.2754    24.5150    55.2170 O.3   104 HOH   0.0000 
311 H1     -35.3154    24.5150    55.2170 H     104 HOH   0.0000 
312 H2     -36.5656    25.1621    55.8641 H     104 HOH   0.0000 
313 O      -21.1023    27.0328    49.2804 O.3   105 HOH   0.0000 
314 H1     -20.1423    27.0328    49.2804 H     105 HOH   0.0000 
315 H2     -21.3926    27.6798    49.9274 H     105 HOH   0.0000 
316 O       -2.3012    10.3870    27.2472 O.3   106 HOH   0.0000 
317 H1      -1.3412    10.3870    27.2472 H     106 HOH   0.0000 
318 H2      -2.5915    11.0340    27.8943 H     106 HOH   0.0000 
319 O      -25.6172    27.1382    53.7201 O.3   107 HOH   0.0000 
320 H1     -24.6572    27.1382    53.7201 H     107 HOH   0.0000 
321 H2     -25.9075    27.7853    54.3672 H     107 HOH   0.0000 
322 O      -14.7840    30.4251    23.2202 O.3   108 HOH   0.0000 
323 H1     -13.8240    30.4251    23.2202 H     108 HOH   0.0000 
324 H2     -15.0742    31.0722    23.8672 H     108 HOH   0.0000 
325 O      -34.4578    38.6982    37.0721 O.3   109 HOH   0.0000 
326 H1     -33.4978    38.6982    37.0721 H     109 HOH   0.0000 
327 H2     -34.7481    39.3452    37.7192 H     109 HOH   0.0000 
328 O       -7.9756     6.0676    34.1881 O.3   110 HOH   0.0000 
329 H1      -7.0156     6.0676    34.1881 H     110 HOH   0.0000 
330 H2      -8.2659     6.7147    34.8352 H     110 HOH   0.0000 
331 O      -11.7007    51.1994    56.5796 O.3   111 HOH   0.0000 
332 H1     -10.7407    51.1994    56.5796 H     111 HOH   0.0000 
333 H2     -11.9910    51.8464    57.2267 H     111 HOH   0.0000 
334 O        2.7123    45.5439    52.8082 O.3   112 HOH   0.0000 
335 H1       3.6723    45.5439    52.8082 H     112 HOH   0.0000 
336 H2       2.4220    46.1909    53.4553 H     112 HOH   0.0000 
337 O       -4.0169    30.2624    34.9440 O.3   113 HOH   0.0000 
338 H1      -3.0569    30.2624    34.9440 H     113 HOH   0.0000 
339 H2      -4.3072    30.9095    35.5911 H     113 HOH   0.0000 
340 O      -10.1538    35.0551    34.9846 O.3   114 HOH   0.0000 
341 H1      -9.1938    35.0551    34.9846 H     114 HOH   0.0000 
342 H2     -10.4440    35.7021    35.6317 H     114 HOH   0.0000 
343 O       -3.7056    12.5993    26.6803 O.3   115 HOH   0.0000 
344 H1      -2.7456    12.5993    26.6803 H     115 HOH   0.0000 
345 H2      -3.9959    13.2464    27.3273 H     115 HOH   0.0000 
346 O        0.1701    41.3575    33.2099 O.3   116 HOH   0.0000 
347 H1       1.1301    41.3575    33.2099 H     116 HOH   0.0000 
348 H2      -0.1201    42.0046    33.8570 H     116 HOH   0.0000 
349 O      -25.7173    24.6802    34.3309 O.3   117 HOH   0.0000 
350 H1     -24.7573    24.6802    34.3309 H     117 HOH   0.0000 
351 H2     -26.0076    25.3273    34.9779 H     117 HOH   0.0000 
352 O      -29.6652    39.7186    53.4400 O.3   118 HOH   0.0000 
353 H1     -28.7052    39.7186    53.4400 H     118 HOH   0.0000 
354 H2     -29.9555    40.3656    54.0871 H     118 HOH   0.0000 
355 O      -20.3447    52.3233    46.1225 O.3   119 HOH   0.0000 
356 H1     -19.3847    52.3233    46.1225 H     119 HOH   0.0000 
357 H2     -20.6350    52.9703    46.7695 H     119 HOH   0.0000 
358 O       -9.5002    33.7059    31.6691 O.3   120 HOH   0.0000 
359 H1      -8.5402    33.7059    31.6691 H     120 HOH   0.0000 
360 H2      -9.7905    34.3530    32.3161 H     120 HOH   0.0000 
361 O       -5.8763    27.7743    44.3979 O.3   121 HOH   0.0000 
362 H1      -4.9163    27.7743    44.3979 H     121 HOH   0.0000 
363 H2      -6.1665    28.4214    45.0449 H     121 HOH   0.0000 
364 O      -20.0882    -0.8074    38.5111 O.3   122 HOH  -0.8340 
365 H1     -19.6597    -1.1001    37.7068 H     122 HOH   0.4170 
366 H2     -21.0216    -0.8056    38.2989 H     122 HOH   0.4170 
367 O      -24.5940    29.1685    55.1927 O.3   123 HOH   0.0000 
368 H1     -23.6340    29.1685    55.1927 H     123 HOH   0.0000 
369 H2     -24.8843    29.8155    55.8397 H     123 HOH   0.0000 
370 O      -28.9782    45.8279    47.6569 O.3   124 HOH   0.0000 
371 H1     -28.0182    45.8279    47.6569 H     124 HOH   0.0000 
372 H2     -29.2685    46.4750    48.3039 H     124 HOH   0.0000 
373 O      -28.8703    19.2538    47.3370 O.3   125 HOH   0.0000 
374 H1     -27.9103    19.2538    47.3370 H     125 HOH   0.0000 
375 H2     -29.1605    19.9009    47.9841 H     125 HOH   0.0000 
376 O       -5.1804    12.5743    44.5915 O.3   126 HOH   0.0000 
377 H1      -4.2204    12.5743    44.5915 H     126 HOH   0.0000 
378 H2      -5.4707    13.2213    45.2385 H     126 HOH   0.0000 
379 O      -13.7249     4.9920    22.9872 O.3   127 HOH   0.0000 
380 H1     -12.7649     4.9920    22.9872 H     127 HOH   0.0000 
381 H2     -14.0152     5.6390    23.6342 H     127 HOH   0.0000 
382 O      -20.5130    38.6311    49.9110 O.3   128 HOH   0.0000 
383 H1     -19.5530    38.6311    49.9110 H     128 HOH   0.0000 
384 H2     -20.8033    39.2781    50.5580 H     128 HOH   0.0000 
385 O      -36.9546    22.2326    56.7818 O.3   129 HOH   0.0000 
386 H1     -35.9946    22.2326    56.7818 H     129 HOH   0.0000 
387 H2     -37.2448    22.8796    57.4288 H     129 HOH   0.0000 
388 O      -14.2150     6.0785    44.6524 O.3   130 HOH   0.0000 
389 H1     -13.2550     6.0785    44.6524 H     130 HOH   0.0000 
390 H2     -14.5053     6.7256    45.2995 H     130 HOH   0.0000 
391 O      -12.5869    17.0265    48.9631 O.3   131 HOH   0.0000 
392 H1     -11.6269    17.0265    48.9631 H     131 HOH   0.0000 
393 H2     -12.8772    17.6736    49.6101 H     131 HOH   0.0000 
394 O      -39.1194    29.5944    58.4125 O.3   132 HOH   0.0000 
395 H1     -38.1594    29.5944    58.4125 H     132 HOH   0.0000 
396 H2     -39.4097    30.2414    59.0595 H     132 HOH   0.0000 
397 O      -14.9463     5.2926    13.6822 O.3   133 HOH   0.0000 
398 H1     -13.9863     5.2926    13.6822 H     133 HOH   0.0000 
399 H2     -15.2366     5.9396    14.3293 H     133 HOH   0.0000 
400 O       24.6130    12.8058    35.7152 O.3   134 HOH   0.0000 
401 H1      25.5730    12.8058    35.7152 H     134 HOH   0.0000 
402 H2      24.3227    13.4529    36.3623 H     134 HOH   0.0000 
403 O       -4.2409    36.8325    51.5929 O.3   135 HOH   0.0000 
404 H1      -3.2809    36.8325    51.5929 H     135 HOH   0.0000 
405 H2      -4.5311    37.4795    52.2400 H     135 HOH   0.0000 
406 O      -19.8291    31.6102    44.0989 O.3   136 HOH   0.0000 
407 H1     -18.8691    31.6102    44.0989 H     136 HOH   0.0000 
408 H2     -20.1194    32.2572    44.7459 H     136 HOH   0.0000 
409 O      -20.4497    22.9868    48.3391 O.3   137 HOH   0.0000 
410 H1     -19.4897    22.9868    48.3391 H     137 HOH   0.0000 
411 H2     -20.7400    23.6338    48.9861 H     137 HOH   0.0000 
412 O       -2.6288    36.1298    28.8016 O.3   138 HOH   0.0000 
413 H1      -1.6688    36.1298    28.8016 H     138 HOH   0.0000 
414 H2      -2.9191    36.7769    29.4487 H     138 HOH   0.0000 
415 O      -26.6659     2.6901    33.2313 O.3   139 HOH   0.0000 
416 H1     -25.7059     2.6901    33.2313 H     139 HOH   0.0000 
417 H2     -26.9562     3.3372    33.8784 H     139 HOH   0.0000 
418 O      -42.9706    26.1088    53.1508 O.3   140 HOH   0.0000 
419 H1     -42.0106    26.1088    53.1508 H     140 HOH   0.0000 
420 H2     -43.2608    26.7558    53.7978 H     140 HOH   0.0000 
421 O      -19.4402    34.0762    42.9731 O.3   141 HOH   0.0000 
422 H1     -18.4802    34.0762    42.9731 H     141 HOH   0.0000 
423 H2     -19.7304    34.7232    43.6202 H     141 HOH   0.0000 
424 O      -45.4901    31.1369    53.3466 O.3   142 HOH   0.0000 
425 H1     -44.5301    31.1369    53.3466 H     142 HOH   0.0000 
426 H2     -45.7804    31.7840    53.9936 H     142 HOH   0.0000 
427 O       -2.2921    25.4179    49.2185 O.3   143 HOH   0.0000 
428 H1      -1.3321    25.4179    49.2185 H     143 HOH   0.0000 
429 H2      -2.5823    26.0650    49.8655 H     143 HOH   0.0000 
430 O      -21.0331    28.8836    36.8487 O.3   144 HOH   0.0000 
431 H1     -20.0731    28.8836    36.8487 H     144 HOH   0.0000 
432 H2     -21.3234    29.5306    37.4958 H     144 HOH   0.0000 
433 O      -19.1727    55.1940    55.0051 O.3   145 HOH   0.0000 
434 H1     -18.2127    55.1940    55.0051 H     145 HOH   0.0000 
435 H2     -19.4630    55.8411    55.6521 H     145 HOH   0.0000 
436 O      -36.5695    23.6393    40.3072 O.3   146 HOH   0.0000 
437 H1     -35.6095    23.6393    40.3072 H     146 HOH   0.0000 
438 H2     -36.8598    24.2863    40.9542 H     146 HOH   0.0000 
439 O      -22.5530    22.1492    34.1013 O.3   147 HOH   0.0000 
440 H1     -21.5930    22.1492    34.1013 H     147 HOH   0.0000 
441 H2     -22.8433    22.7963    34.7483 H     147 HOH   0.0000 
442 O      -43.6829    23.3771    50.6165 O.3   148 HOH   0.0000 
443 H1     -42.7229    23.3771    50.6165 H     148 HOH   0.0000 
444 H2     -43.9731    24.0242    51.2635 H     148 HOH   0.0000 
445 O      -17.8822     7.8185    18.7055 O.3   149 HOH   0.0000 
446 H1     -16.9222     7.8185    18.7055 H     149 HOH   0.0000 
447 H2     -18.1724     8.4655    19.3525 H     149 HOH   0.0000 
448 O       -4.7878    15.8810    24.9555 O.3   150 HOH   0.0000 
449 H1      -3.8278    15.8810    24.9555 H     150 HOH   0.0000 
450 H2      -5.0781    16.5281    25.6026 H     150 HOH   0.0000 
451 O      -31.1716    45.0144    46.3160 O.3   151 HOH   0.0000 
452 H1     -30.2116    45.0144    46.3160 H     151 HOH   0.0000 
453 H2     -31.4619    45.6614    46.9630 H     151 HOH   0.0000 
454 O      -20.3566    18.6432    48.5856 O.3   152 HOH   0.0000 
455 H1     -19.3966    18.6432    48.5856 H     152 HOH   0.0000 
456 H2     -20.6469    19.2902    49.2326 H     152 HOH   0.0000 
457 O      -45.2674    31.3874    43.3268 O.3   153 HOH   0.0000 
458 H1     -44.3074    31.3874    43.3268 H     153 HOH   0.0000 
459 H2     -45.5577    32.0344    43.9739 H     153 HOH   0.0000 
460 O      -42.6463    18.9594    53.0912 O.3   154 HOH   0.0000 
461 H1     -41.6863    18.9594    53.0912 H     154 HOH   0.0000 
462 H2     -42.9366    19.6065    53.7382 H     154 HOH   0.0000 
463 O      -22.8117    20.4678    38.6000 O.3   155 HOH   0.0000 
464 H1     -21.8517    20.4678    38.6000 H     155 HOH   0.0000 
465 H2     -23.1020    21.1148    39.2471 H     155 HOH   0.0000 
466 O      -27.0032    20.1862    26.2436 O.3   156 HOH   0.0000 
467 H1     -26.0432    20.1862    26.2436 H     156 HOH   0.0000 
468 H2     -27.2935    20.8332    26.8906 H     156 HOH   0.0000 
469 O       -3.6727     7.2913    33.8403 O.3   157 HOH   0.0000 
470 H1      -2.7127     7.2913    33.8403 H     157 HOH   0.0000 
471 H2      -3.9630     7.9383    34.4874 H     157 HOH   0.0000 
472 O      -12.2755    19.3370    47.5335 O.3   158 HOH   0.0000 
473 H1     -11.3155    19.3370    47.5335 H     158 HOH   0.0000 
474 H2     -12.5658    19.9841    48.1806 H     158 HOH   0.0000 
475 O      -31.4973    18.6125    43.0498 O.3   159 HOH   0.0000 
476 H1     -30.5373    18.6125    43.0498 H     159 HOH   0.0000 
477 H2     -31.7876    19.2596    43.6968 H     159 HOH   0.0000 
478 O       -5.8447    23.8978    47.4017 O.3   160 HOH   0.0000 
479 H1      -4.8847    23.8978    47.4017 H     160 HOH   0.0000 
480 H2      -6.1350    24.5448    48.0488 H     160 HOH   0.0000 
481 O      -13.8722    45.7341    42.1432 O.3   161 HOH   0.0000 
482 H1     -12.9122    45.7341    42.1432 H     161 HOH   0.0000 
483 H2     -14.1624    46.3812    42.7903 H     161 HOH   0.0000 
484 O       19.1211    25.1722    37.7013 O.3   162 HOH   0.0000 
485 H1      20.0811    25.1722    37.7013 H     162 HOH   0.0000 
486 H2      18.8308    25.8193    38.3484 H     162 HOH   0.0000 
487 O      -15.3380    38.6791    43.1649 O.3   163 HOH   0.0000 
488 H1     -14.3780    38.6791    43.1649 H     163 HOH   0.0000 
489 H2     -15.6283    39.3261    43.8120 H     163 HOH   0.0000 
490 O      -31.5278    19.9456    56.4896 O.3   164 HOH   0.0000 
491 H1     -30.5678    19.9456    56.4896 H     164 HOH   0.0000 
492 H2     -31.8180    20.5927    57.1367 H     164 HOH   0.0000 
493 O      -18.1864    19.4305    14.4863 O.3   165 HOH   0.0000 
494 H1     -17.2264    19.4305    14.4863 H     165 HOH   0.0000 
495 H2     -18.4767    20.0776    15.1333 H     165 HOH   0.0000 
496 O      -24.8847     6.0511    42.6942 O.3   166 HOH  -0.8340 
497 H1     -24.5360     6.9121    42.9253 H     166 HOH   0.4170 
498 H2     -24.3197     5.7461    41.9843 H     166 HOH   0.4170 
499 O       -9.1216    29.9282    44.4553 O.3   167 HOH   0.0000 
500 H1      -8.1616    29.9282    44.4553 H     167 HOH   0.0000 
501 H2      -9.4118    30.5752    45.1024 H     167 HOH   0.0000 
502 O      -13.5321    29.6046    29.3907 O.3   168 HOH   0.0000 
503 H1     -12.5721    29.6046    29.3907 H     168 HOH   0.0000 
504 H2     -13.8224    30.2517    30.0377 H     168 HOH   0.0000 
505 O      -29.4854    12.1794    29.3822 O.3   169 HOH   0.0000 
506 H1     -28.5254    12.1794    29.3822 H     169 HOH   0.0000 
507 H2     -29.7756    12.8264    30.0292 H     169 HOH   0.0000 
508 O      -36.6693    14.8992    48.5857 O.3   170 HOH   0.0000 
509 H1     -35.7093    14.8992    48.5857 H     170 HOH   0.0000 
510 H2     -36.9595    15.5462    49.2328 H     170 HOH   0.0000 
511 O       14.7116    14.6963    46.8480 O.3   171 HOH   0.0000 
512 H1      15.6716    14.6963    46.8480 H     171 HOH   0.0000 
513 H2      14.4214    15.3434    47.4951 H     171 HOH   0.0000 
514 O        5.2094    19.7318    37.2152 O.3   172 HOH  -0.8340 
515 H1       4.4977    20.1742    37.6778 H     172 HOH   0.4170 
516 H2       5.2618    20.1796    36.3709 H     172 HOH   0.4170 
517 O      -11.8596    15.2385     9.4659 O.3   173 HOH   0.0000 
518 H1     -10.8996    15.2385     9.4659 H     173 HOH   0.0000 
519 H2     -12.1499    15.8855    10.1129 H     173 HOH   0.0000 
520 O      -18.9094     1.3362    34.4035 O.3   174 HOH  -0.8340 
521 H1     -18.1687     0.7559    34.5796 H     174 HOH   0.4170 
522 H2     -18.9005     1.9629    35.1269 H     174 HOH   0.4170 
523 O      -12.0006    35.7254    53.5199 O.3   175 HOH   0.0000 
524 H1     -11.0406    35.7254    53.5199 H     175 HOH   0.0000 
525 H2     -12.2909    36.3725    54.1670 H     175 HOH   0.0000 
526 O      -14.5614    49.5622    57.8533 O.3   176 HOH   0.0000 
527 H1     -13.6014    49.5622    57.8533 H     176 HOH   0.0000 
528 H2     -14.8517    50.2092    58.5003 H     176 HOH   0.0000 
529 O      -27.3531    19.6324    45.0955 O.3   177 HOH   0.0000 
530 H1     -26.3931    19.6324    45.0955 H     177 HOH   0.0000 
531 H2     -27.6434    20.2794    45.7426 H     177 HOH   0.0000 
532 O      -24.4826    44.9595    41.2224 O.3   178 HOH   0.0000 
533 H1     -23.5226    44.9595    41.2224 H     178 HOH   0.0000 
534 H2     -24.7729    45.6065    41.8694 H     178 HOH   0.0000 
535 O      -27.1076    48.1588    46.8566 O.3   179 HOH   0.0000 
536 H1     -26.1476    48.1588    46.8566 H     179 HOH   0.0000 
537 H2     -27.3979    48.8059    47.5037 H     179 HOH   0.0000 
538 O      -13.9442    12.6811    49.2363 O.3   180 HOH   0.0000 
539 H1     -12.9842    12.6811    49.2363 H     180 HOH   0.0000 
540 H2     -14.2344    13.3281    49.8834 H     180 HOH   0.0000 
541 O      -30.5357    28.8039    34.7170 O.3   181 HOH   0.0000 
542 H1     -29.5757    28.8039    34.7170 H     181 HOH   0.0000 
543 H2     -30.8260    29.4509    35.3641 H     181 HOH   0.0000 
544 O      -36.0899    39.4514    34.7688 O.3   182 HOH   0.0000 
545 H1     -35.1299    39.4514    34.7688 H     182 HOH   0.0000 
546 H2     -36.3802    40.0984    35.4159 H     182 HOH   0.0000 
547 O      -27.6487    19.2149    37.8412 O.3   183 HOH   0.0000 
548 H1     -26.6887    19.2149    37.8412 H     183 HOH   0.0000 
549 H2     -27.9390    19.8620    38.4883 H     183 HOH   0.0000 
550 O      -42.2291    40.8226    54.7859 O.3   184 HOH   0.0000 
551 H1     -41.2691    40.8226    54.7859 H     184 HOH   0.0000 
552 H2     -42.5194    41.4697    55.4329 H     184 HOH   0.0000 
553 O      -10.1202     0.0485    36.2469 O.3   185 HOH   0.0000 
554 H1      -9.1602     0.0485    36.2469 H     185 HOH   0.0000 
555 H2     -10.4105     0.6955    36.8939 H     185 HOH   0.0000 
556 O       -1.7151    35.2153    44.7843 O.3   186 HOH   0.0000 
557 H1      -0.7551    35.2153    44.7843 H     186 HOH   0.0000 
558 H2      -2.0053    35.8623    45.4314 H     186 HOH   0.0000 
559 O       14.0879    28.9178    53.5084 O.3   187 HOH   0.0000 
560 H1      15.0479    28.9178    53.5084 H     187 HOH   0.0000 
561 H2      13.7976    29.5649    54.1555 H     187 HOH   0.0000 
562 O      -34.2663    29.4543    37.1842 O.3   188 HOH   0.0000 
563 H1     -33.3063    29.4543    37.1842 H     188 HOH   0.0000 
564 H2     -34.5566    30.1013    37.8312 H     188 HOH   0.0000 
565 O      -41.4599    50.9004    41.3828 O.3   189 HOH   0.0000 
566 H1     -40.4999    50.9004    41.3828 H     189 HOH   0.0000 
567 H2     -41.7502    51.5475    42.0298 H     189 HOH   0.0000 
568 O      -16.6908    12.9545     7.5574 O.3   190 HOH   0.0000 
569 H1     -15.7308    12.9545     7.5574 H     190 HOH   0.0000 
570 H2     -16.9811    13.6016     8.2044 H     190 HOH   0.0000 
571 O       -3.0283    30.1444    42.7078 O.3   191 HOH   0.0000 
572 H1      -2.0683    30.1444    42.7078 H     191 HOH   0.0000 
573 H2      -3.3185    30.7915    43.3549 H     191 HOH   0.0000 
574 O        1.0513    17.9277    14.8802 O.3   192 HOH   0.0000 
575 H1       2.0113    17.9277    14.8802 H     192 HOH   0.0000 
576 H2       0.7610    18.5748    15.5272 H     192 HOH   0.0000 
577 O      -12.2570    34.0106    40.3687 O.3   193 HOH   0.0000 
578 H1     -11.2970    34.0106    40.3687 H     193 HOH   0.0000 
579 H2     -12.5473    34.6576    41.0157 H     193 HOH   0.0000 
580 O        3.1455     7.8695    45.5581 O.3   194 HOH   0.0000 
581 H1       4.1055     7.8695    45.5581 H     194 HOH   0.0000 
582 H2       2.8553     8.5166    46.2052 H     194 HOH   0.0000 
583 O      -31.3727    34.8739    54.5895 O.3   195 HOH   0.0000 
584 H1     -30.4127    34.8739    54.5895 H     195 HOH   0.0000 
585 H2     -31.6630    35.5210    55.2366 H     195 HOH   0.0000 
586 O      -17.0008     8.6313    13.3151 O.3   196 HOH   0.0000 
587 H1     -16.0408     8.6313    13.3151 H     196 HOH   0.0000 
588 H2     -17.2911     9.2784    13.9621 H     196 HOH   0.0000 
589 O       -1.9272    41.9926    37.3626 O.3   197 HOH   0.0000 
590 H1      -0.9672    41.9926    37.3626 H     197 HOH   0.0000 
591 H2      -2.2175    42.6396    38.0097 H     197 HOH   0.0000 
592 O      -32.1209    45.4720    43.2952 O.3   198 HOH   0.0000 
593 H1     -31.1609    45.4720    43.2952 H     198 HOH   0.0000 
594 H2     -32.4112    46.1191    43.9423 H     198 HOH   0.0000 
595 O        9.1376    38.2038    32.4401 O.3   199 HOH   0.0000 
596 H1      10.0976    38.2038    32.4401 H     199 HOH   0.0000 
597 H2       8.8474    38.8509    33.0871 H     199 HOH   0.0000 
598 O      -18.0110     0.6681    41.2982 O.3   200 HOH  -0.8340 
599 H1     -18.3140     0.4528    40.4162 H     200 HOH   0.4170 
600 H2     -18.3072    -0.0639    41.8392 H     200 HOH   0.4170 
601 O        3.8267    37.3028    40.4388 O.3   201 HOH   0.0000 
602 H1       4.7867    37.3028    40.4388 H     201 HOH   0.0000 
603 H2       3.5365    37.9498    41.0859 H     201 HOH   0.0000 
604 O      -26.2095    17.2010    45.6713 O.3   202 HOH   0.0000 
605 H1     -25.2495    17.2010    45.6713 H     202 HOH   0.0000 
606 H2     -26.4998    17.8480    46.3183 H     202 HOH   0.0000 
607 O       -9.3916    29.9982    49.1050 O.3   203 HOH   0.0000 
608 H1      -8.4316    29.9982    49.1050 H     203 HOH   0.0000 
609 H2      -9.6819    30.6452    49.7520 H     203 HOH   0.0000 
610 O      -25.8714    11.5682    42.4391 O.3   204 HOH  -0.8340 
611 H1     -25.6939    10.6280    42.4114 H     204 HOH   0.4170 
612 H2     -26.8121    11.6398    42.2773 H     204 HOH   0.4170 
613 O       -1.5350    36.8354    50.2214 O.3   205 HOH   0.0000 
614 H1      -0.5750    36.8354    50.2214 H     205 HOH   0.0000 
615 H2      -1.8252    37.4825    50.8685 H     205 HOH   0.0000 
616 O       10.1010    38.2431    35.1570 O.3   206 HOH   0.0000 
617 H1      11.0610    38.2431    35.1570 H     206 HOH   0.0000 
618 H2       9.8108    38.8901    35.8041 H     206 HOH   0.0000 
619 O      -17.4574    42.8591    42.2026 O.3   207 HOH   0.0000 
620 H1     -16.4974    42.8591    42.2026 H     207 HOH   0.0000 
621 H2     -17.7477    43.5062    42.8496 H     207 HOH   0.0000 
622 O      -17.2431    18.2255     9.6661 O.3   208 HOH   0.0000 
623 H1     -16.2831    18.2255     9.6661 H     208 HOH   0.0000 
624 H2     -17.5334    18.8726    10.3131 H     208 HOH   0.0000 
625 O      -36.1147    19.5838    42.2527 O.3   209 HOH   0.0000 
626 H1     -35.1547    19.5838    42.2527 H     209 HOH   0.0000 
627 H2     -36.4050    20.2309    42.8997 H     209 HOH   0.0000 
628 O      -44.0474    51.7805    41.5294 O.3   210 HOH   0.0000 
629 H1     -43.0874    51.7805    41.5294 H     210 HOH   0.0000 
630 H2     -44.3377    52.4275    42.1765 H     210 HOH   0.0000 
631 O      -23.3848     1.6396    25.2675 O.3   211 HOH   0.0000 
632 H1     -22.4248     1.6396    25.2675 H     211 HOH   0.0000 
633 H2     -23.6751     2.2866    25.9146 H     211 HOH   0.0000 
634 O       -5.9082    40.8753    56.8679 O.3   212 HOH   0.0000 
635 H1      -4.9482    40.8753    56.8679 H     212 HOH   0.0000 
636 H2      -6.1985    41.5223    57.5149 H     212 HOH   0.0000 
637 O       16.1177    34.1740    44.1782 O.3   213 HOH   0.0000 
638 H1      17.0777    34.1740    44.1782 H     213 HOH   0.0000 
639 H2      15.8274    34.8211    44.8253 H     213 HOH   0.0000 
640 O       -0.0047    51.9658    54.6551 O.3   214 HOH   0.0000 
641 H1       0.9553    51.9658    54.6551 H     214 HOH   0.0000 
642 H2      -0.2950    52.6128    55.3022 H     214 HOH   0.0000 
643 O       -2.1824    57.4695    44.3252 O.3   215 HOH   0.0000 
644 H1      -1.2224    57.4695    44.3252 H     215 HOH   0.0000 
645 H2      -2.4727    58.1166    44.9723 H     215 HOH   0.0000 
646 O      -40.5059    45.5183    51.7912 O.3   216 HOH   0.0000 
647 H1     -39.5459    45.5183    51.7912 H     216 HOH   0.0000 
648 H2     -40.7961    46.1653    52.4383 H     216 HOH   0.0000 
649 O      -32.3874    39.3573    54.2657 O.3   217 HOH   0.0000 
650 H1     -31.4274    39.3573    54.2657 H     217 HOH   0.0000 
651 H2     -32.6777    40.0044    54.9127 H     217 HOH   0.0000 
652 O      -34.3587    20.3121    38.6858 O.3   218 HOH   0.0000 
653 H1     -33.3987    20.3121    38.6858 H     218 HOH   0.0000 
654 H2     -34.6490    20.9592    39.3328 H     218 HOH   0.0000 
655 O       -8.3229    32.6169    25.7232 O.3   219 HOH   0.0000 
656 H1      -7.3629    32.6169    25.7232 H     219 HOH   0.0000 
657 H2      -8.6132    33.2640    26.3703 H     219 HOH   0.0000 
658 O       -3.0450    29.3307    51.9395 O.3   220 HOH   0.0000 
659 H1      -2.0850    29.3307    51.9395 H     220 HOH   0.0000 
660 H2      -3.3353    29.9778    52.5866 H     220 HOH   0.0000 
661 O        9.3478    38.4406    46.3609 O.3   221 HOH   0.0000 
662 H1      10.3078    38.4406    46.3609 H     221 HOH   0.0000 
663 H2       9.0575    39.0876    47.0080 H     221 HOH   0.0000 
664 O      -16.4489    22.6165    15.4180 O.3   222 HOH   0.0000 
665 H1     -15.4889    22.6165    15.4180 H     222 HOH   0.0000 
666 H2     -16.7391    23.2635    16.0651 H     222 HOH   0.0000 
667 O       -2.5245    12.0490    24.2396 O.3   223 HOH   0.0000 
668 H1      -1.5645    12.0490    24.2396 H     223 HOH   0.0000 
669 H2      -2.8148    12.6961    24.8867 H     223 HOH   0.0000 
670 O      -25.8144    16.6841    48.4903 O.3   224 HOH   0.0000 
671 H1     -24.8544    16.6841    48.4903 H     224 HOH   0.0000 
672 H2     -26.1047    17.3312    49.1374 H     224 HOH   0.0000 
673 O      -39.7914    29.8497    38.0653 O.3   225 HOH   0.0000 
674 H1     -38.8314    29.8497    38.0653 H     225 HOH   0.0000 
675 H2     -40.0816    30.4968    38.7123 H     225 HOH   0.0000 
676 O       -1.0476    46.3309    55.7331 O.3   226 HOH   0.0000 
677 H1      -0.0876    46.3309    55.7331 H     226 HOH   0.0000 
678 H2      -1.3379    46.9779    56.3802 H     226 HOH   0.0000 
679 O      -36.4233    25.0662    37.3466 O.3   227 HOH   0.0000 
680 H1     -35.4633    25.0662    37.3466 H     227 HOH   0.0000 
681 H2     -36.7136    25.7132    37.9937 H     227 HOH   0.0000 
682 O      -31.5763    44.1832    40.7840 O.3   228 HOH   0.0000 
683 H1     -30.6163    44.1832    40.7840 H     228 HOH   0.0000 
684 H2     -31.8666    44.8302    41.4310 H     228 HOH   0.0000 
685 O       -2.0493     9.1225    39.0418 O.3   229 HOH   0.0000 
686 H1      -1.0893     9.1225    39.0418 H     229 HOH   0.0000 
687 H2      -2.3396     9.7695    39.6888 H     229 HOH   0.0000 
688 O        0.3096    25.0219    20.6411 O.3   230 HOH   0.0000 
689 H1       1.2696    25.0219    20.6411 H     230 HOH   0.0000 
690 H2       0.0193    25.6690    21.2882 H     230 HOH   0.0000 
691 O       -7.1426    36.4605    31.7751 O.3   231 HOH   0.0000 
692 H1      -6.1826    36.4605    31.7751 H     231 HOH   0.0000 
693 H2      -7.4329    37.1075    32.4221 H     231 HOH   0.0000 
694 O      -18.8036    27.8213    41.1725 O.3   232 HOH   0.0000 
695 H1     -17.8436    27.8213    41.1725 H     232 HOH   0.0000 
696 H2     -19.0939    28.4683    41.8195 H     232 HOH   0.0000 
697 O       10.7801    35.2108    54.6085 O.3   233 HOH   0.0000 
698 H1      11.7401    35.2108    54.6085 H     233 HOH   0.0000 
699 H2      10.4898    35.8578    55.2555 H     233 HOH   0.0000 
700 O        2.1585    40.6528    35.1248 O.3   234 HOH   0.0000 
701 H1       3.1185    40.6528    35.1248 H     234 HOH   0.0000 
702 H2       1.8682    41.2999    35.7718 H     234 HOH   0.0000 
703 O      -19.1559     0.4061    19.9135 O.3   235 HOH   0.0000 
704 H1     -18.1959     0.4061    19.9135 H     235 HOH   0.0000 
705 H2     -19.4462     1.0531    20.5606 H     235 HOH   0.0000 
706 O      -33.6767    40.5931    38.8745 O.3   236 HOH   0.0000 
707 H1     -32.7167    40.5931    38.8745 H     236 HOH   0.0000 
708 H2     -33.9670    41.2402    39.5215 H     236 HOH   0.0000 
709 O       -4.9777    22.9783    16.3055 O.3   237 HOH   0.0000 
710 H1      -4.0177    22.9783    16.3055 H     237 HOH   0.0000 
711 H2      -5.2680    23.6253    16.9526 H     237 HOH   0.0000 
712 O       -3.0433    54.0966    41.7009 O.3   238 HOH   0.0000 
713 H1      -2.0833    54.0966    41.7009 H     238 HOH   0.0000 
714 H2      -3.3335    54.7437    42.3480 H     238 HOH   0.0000 
715 O        2.7833    15.3386    11.7851 O.3   239 HOH   0.0000 
716 H1       3.7433    15.3386    11.7851 H     239 HOH   0.0000 
717 H2       2.4930    15.9856    12.4321 H     239 HOH   0.0000 
718 O       -0.2175    39.1982    36.0535 O.3   240 HOH   0.0000 
719 H1       0.7425    39.1982    36.0535 H     240 HOH   0.0000 
720 H2      -0.5077    39.8453    36.7005 H     240 HOH   0.0000 
721 O      -19.3209    33.5413    40.0506 O.3   241 HOH   0.0000 
722 H1     -18.3609    33.5413    40.0506 H     241 HOH   0.0000 
723 H2     -19.6112    34.1883    40.6976 H     241 HOH   0.0000 
724 O       -6.5918     8.2881    11.2530 O.3   242 HOH   0.0000 
725 H1      -5.6318     8.2881    11.2530 H     242 HOH   0.0000 
726 H2      -6.8821     8.9352    11.9000 H     242 HOH   0.0000 
727 O       14.5946    25.9258    52.1125 O.3   243 HOH   0.0000 
728 H1      15.5546    25.9258    52.1125 H     243 HOH   0.0000 
729 H2      14.3043    26.5729    52.7595 H     243 HOH   0.0000 
730 O      -16.2252    -0.4765    27.6271 O.3   244 HOH   0.0000 
731 H1     -15.2652    -0.4765    27.6271 H     244 HOH   0.0000 
732 H2     -16.5154     0.1705    28.2742 H     244 HOH   0.0000 
733 O      -30.5966    16.3984    53.3151 O.3   245 HOH   0.0000 
734 H1     -29.6366    16.3984    53.3151 H     245 HOH   0.0000 
735 H2     -30.8869    17.0454    53.9621 H     245 HOH   0.0000 
736 O      -24.1643     9.8851    46.3973 O.3   246 HOH   0.0000 
737 H1     -23.2043     9.8851    46.3973 H     246 HOH   0.0000 
738 H2     -24.4545    10.5321    47.0444 H     246 HOH   0.0000 
739 O       -7.6717    25.5101    46.4141 O.3   247 HOH   0.0000 
740 H1      -6.7117    25.5101    46.4141 H     247 HOH   0.0000 
741 H2      -7.9620    26.1572    47.0612 H     247 HOH   0.0000 
742 O       -6.2459    17.0534    12.9551 O.3   248 HOH   0.0000 
743 H1      -5.2859    17.0534    12.9551 H     248 HOH   0.0000 
744 H2      -6.5361    17.7005    13.6022 H     248 HOH   0.0000 
745 O      -40.0334    26.4006    39.3997 O.3   249 HOH   0.0000 
746 H1     -39.0734    26.4006    39.3997 H     249 HOH   0.0000 
747 H2     -40.3237    27.0476    40.0467 H     249 HOH   0.0000 
748 O      -10.5460    45.9113    59.6601 O.3   250 HOH   0.0000 
749 H1      -9.5860    45.9113    59.6601 H     250 HOH   0.0000 
750 H2     -10.8363    46.5584    60.3072 H     250 HOH   0.0000 
751 O      -22.8731    48.0066    40.7277 O.3   251 HOH   0.0000 
752 H1     -21.9131    48.0066    40.7277 H     251 HOH   0.0000 
753 H2     -23.1634    48.6536    41.3747 H     251 HOH   0.0000 
754 O       11.3261    40.1816    38.1112 O.3   252 HOH   0.0000 
755 H1      12.2861    40.1816    38.1112 H     252 HOH   0.0000 
756 H2      11.0359    40.8286    38.7583 H     252 HOH   0.0000 
757 O       14.4513    18.9776    36.1706 O.3   253 HOH   0.0000 
758 H1      15.4113    18.9776    36.1706 H     253 HOH   0.0000 
759 H2      14.1611    19.6247    36.8176 H     253 HOH   0.0000 
760 O       -5.6865    31.4589    47.2139 O.3   254 HOH   0.0000 
761 H1      -4.7265    31.4589    47.2139 H     254 HOH   0.0000 
762 H2      -5.9768    32.1060    47.8609 H     254 HOH   0.0000 
763 O      -31.7845    15.8290    42.9727 O.3   255 HOH   0.0000 
764 H1     -30.8245    15.8290    42.9727 H     255 HOH   0.0000 
765 H2     -32.0748    16.4760    43.6197 H     255 HOH   0.0000 
766 O        2.1871    38.9290    38.8550 O.3   256 HOH   0.0000 
767 H1       3.1471    38.9290    38.8550 H     256 HOH   0.0000 
768 H2       1.8969    39.5761    39.5021 H     256 HOH   0.0000 
769 O      -26.0386    31.0579    56.4056 O.3   257 HOH   0.0000 
770 H1     -25.0786    31.0579    56.4056 H     257 HOH   0.0000 
771 H2     -26.3289    31.7049    57.0526 H     257 HOH   0.0000 
772 O       -7.0235    47.9667    31.7337 O.3   258 HOH   0.0000 
773 H1      -6.0635    47.9667    31.7337 H     258 HOH   0.0000 
774 H2      -7.3138    48.6138    32.3807 H     258 HOH   0.0000 
775 O       -6.6836    44.7042    58.3134 O.3   259 HOH   0.0000 
776 H1      -5.7236    44.7042    58.3134 H     259 HOH   0.0000 
777 H2      -6.9739    45.3512    58.9604 H     259 HOH   0.0000 
778 O       -9.1108     4.3209     7.0230 O.3   260 HOH   0.0000 
779 H1      -8.1508     4.3209     7.0230 H     260 HOH   0.0000 
780 H2      -9.4010     4.9679     7.6700 H     260 HOH   0.0000 
781 O       -7.2412    29.6935    42.4856 O.3   261 HOH   0.0000 
782 H1      -6.2812    29.6935    42.4856 H     261 HOH   0.0000 
783 H2      -7.5315    30.3406    43.1326 H     261 HOH   0.0000 
784 O       -4.0217    14.1150    23.0648 O.3   262 HOH   0.0000 
785 H1      -3.0617    14.1150    23.0648 H     262 HOH   0.0000 
786 H2      -4.3120    14.7620    23.7119 H     262 HOH   0.0000 
787 O      -21.2535    22.6107    36.6205 O.3   263 HOH   0.0000 
788 H1     -20.2935    22.6107    36.6205 H     263 HOH   0.0000 
789 H2     -21.5438    23.2578    37.2676 H     263 HOH   0.0000 
790 O      -11.1691    29.8056    42.1760 O.3   264 HOH   0.0000 
791 H1     -10.2091    29.8056    42.1760 H     264 HOH   0.0000 
792 H2     -11.4594    30.4526    42.8231 H     264 HOH   0.0000 
793 O      -14.6948     4.9517    10.6144 O.3   265 HOH   0.0000 
794 H1     -13.7348     4.9517    10.6144 H     265 HOH   0.0000 
795 H2     -14.9851     5.5988    11.2614 H     265 HOH   0.0000 
796 O      -39.1785    24.6349    41.2853 O.3   266 HOH   0.0000 
797 H1     -38.2185    24.6349    41.2853 H     266 HOH   0.0000 
798 H2     -39.4688    25.2819    41.9323 H     266 HOH   0.0000 
799 O       -8.6939    38.6900    37.8699 O.3   267 HOH   0.0000 
800 H1      -7.7339    38.6900    37.8699 H     267 HOH   0.0000 
801 H2      -8.9842    39.3371    38.5169 H     267 HOH   0.0000 
802 O       -6.3632    38.3394    57.6515 O.3   268 HOH   0.0000 
803 H1      -5.4032    38.3394    57.6515 H     268 HOH   0.0000 
804 H2      -6.6535    38.9864    58.2985 H     268 HOH   0.0000 
805 O       -5.6734    26.1955    48.9635 O.3   269 HOH   0.0000 
806 H1      -4.7134    26.1955    48.9635 H     269 HOH   0.0000 
807 H2      -5.9637    26.8426    49.6106 H     269 HOH   0.0000 
808 O      -24.0179     5.0758    18.3852 O.3   270 HOH   0.0000 
809 H1     -23.0579     5.0758    18.3852 H     270 HOH   0.0000 
810 H2     -24.3081     5.7229    19.0322 H     270 HOH   0.0000 
811 O      -13.6122    43.3072    39.9662 O.3   271 HOH   0.0000 
812 H1     -12.6522    43.3072    39.9662 H     271 HOH   0.0000 
813 H2     -13.9025    43.9542    40.6132 H     271 HOH   0.0000 
814 O       -7.8629    21.7737    15.2509 O.3   272 HOH   0.0000 
815 H1      -6.9029    21.7737    15.2509 H     272 HOH   0.0000 
816 H2      -8.1532    22.4207    15.8979 H     272 HOH   0.0000 
817 O       -3.1776    21.8055    14.2931 O.3   273 HOH   0.0000 
818 H1      -2.2176    21.8055    14.2931 H     273 HOH   0.0000 
819 H2      -3.4679    22.4526    14.9401 H     273 HOH   0.0000 
820 O       -3.8755    33.3132    44.4766 O.3   274 HOH   0.0000 
821 H1      -2.9155    33.3132    44.4766 H     274 HOH   0.0000 
822 H2      -4.1657    33.9602    45.1237 H     274 HOH   0.0000 
823 O       -9.8720     1.6800    39.5439 O.3   275 HOH   0.0000 
824 H1      -8.9120     1.6800    39.5439 H     275 HOH   0.0000 
825 H2     -10.1622     2.3271    40.1909 H     275 HOH   0.0000 
826 O        0.8496    27.8343    20.5965 O.3   276 HOH   0.0000 
827 H1       1.8096    27.8343    20.5965 H     276 HOH   0.0000 
828 H2       0.5593    28.4814    21.2436 H     276 HOH   0.0000 
829 O      -17.3078    -2.6786    16.6908 O.3   277 HOH   0.0000 
830 H1     -16.3478    -2.6786    16.6908 H     277 HOH   0.0000 
831 H2     -17.5981    -2.0316    17.3379 H     277 HOH   0.0000 
832 O      -10.5434    35.6979    37.5993 O.3   278 HOH   0.0000 
833 H1      -9.5834    35.6979    37.5993 H     278 HOH   0.0000 
834 H2     -10.8337    36.3450    38.2464 H     278 HOH   0.0000 
835 O      -10.2613    41.7842    38.3841 O.3   279 HOH   0.0000 
836 H1      -9.3013    41.7842    38.3841 H     279 HOH   0.0000 
837 H2     -10.5516    42.4313    39.0312 H     279 HOH   0.0000 
838 O      -12.6842    31.3918    27.1784 O.3   280 HOH   0.0000 
839 H1     -11.7242    31.3918    27.1784 H     280 HOH   0.0000 
840 H2     -12.9745    32.0388    27.8254 H     280 HOH   0.0000 
841 O      -24.0418     8.8516    43.8722 O.3   281 HOH  -0.8340 
842 H1     -23.4607     8.7999    44.6311 H     281 HOH   0.4170 
843 H2     -23.4899     9.1966    43.1704 H     281 HOH   0.4170 
844 O       -8.9901    41.9401    62.4198 O.3   282 HOH   0.0000 
845 H1      -8.0301    41.9401    62.4198 H     282 HOH   0.0000 
846 H2      -9.2804    42.5871    63.0669 H     282 HOH   0.0000 
847 O       -8.6241    11.1467     9.7643 O.3   283 HOH   0.0000 
848 H1      -7.6641    11.1467     9.7643 H     283 HOH   0.0000 
849 H2      -8.9143    11.7938    10.4114 H     283 HOH   0.0000 
850 O      -20.7444    46.2964    40.2222 O.3   284 HOH   0.0000 
851 H1     -19.7844    46.2964    40.2222 H     284 HOH   0.0000 
852 H2     -21.0347    46.9435    40.8692 H     284 HOH   0.0000 
853 O       -8.3663    19.7995    13.0155 O.3   285 HOH   0.0000 
854 H1      -7.4063    19.7995    13.0155 H     285 HOH   0.0000 
855 H2      -8.6566    20.4465    13.6626 H     285 HOH   0.0000 
856 O      -40.0873    15.7330    53.8600 O.3   286 HOH   0.0000 
857 H1     -39.1273    15.7330    53.8600 H     286 HOH   0.0000 
858 H2     -40.3776    16.3800    54.5070 H     286 HOH   0.0000 
859 O       10.5898    40.7674    32.3401 O.3   287 HOH   0.0000 
860 H1      11.5498    40.7674    32.3401 H     287 HOH   0.0000 
861 H2      10.2995    41.4145    32.9872 H     287 HOH   0.0000 
862 O      -18.7864    25.4548    48.1493 O.3   288 HOH   0.0000 
863 H1     -17.8264    25.4548    48.1493 H     288 HOH   0.0000 
864 H2     -19.0767    26.1019    48.7964 H     288 HOH   0.0000 
865 O      -44.4780    24.4993    47.6965 O.3   289 HOH   0.0000 
866 H1     -43.5180    24.4993    47.6965 H     289 HOH   0.0000 
867 H2     -44.7683    25.1463    48.3436 H     289 HOH   0.0000 
868 O       -9.6393    47.5744    32.5937 O.3   290 HOH   0.0000 
869 H1      -8.6793    47.5744    32.5937 H     290 HOH   0.0000 
870 H2      -9.9296    48.2214    33.2407 H     290 HOH   0.0000 
871 O       -0.9058    36.6922    47.4555 O.3   291 HOH   0.0000 
872 H1       0.0542    36.6922    47.4555 H     291 HOH   0.0000 
873 H2      -1.1961    37.3392    48.1025 H     291 HOH   0.0000 
874 O      -17.3825    31.0863    45.6038 O.3   292 HOH   0.0000 
875 H1     -16.4225    31.0863    45.6038 H     292 HOH   0.0000 
876 H2     -17.6728    31.7333    46.2509 H     292 HOH   0.0000 
877 O      -45.2256    27.1407    51.9941 O.3   293 HOH   0.0000 
878 H1     -44.2656    27.1407    51.9941 H     293 HOH   0.0000 
879 H2     -45.5159    27.7878    52.6411 H     293 HOH   0.0000 
880 O      -34.5796    45.2297    56.4591 O.3   294 HOH   0.0000 
881 H1     -33.6196    45.2297    56.4591 H     294 HOH   0.0000 
882 H2     -34.8699    45.8767    57.1061 H     294 HOH   0.0000 
883 O       17.1192    28.7320    26.7124 O.3   295 HOH   0.0000 
884 H1      18.0792    28.7320    26.7124 H     295 HOH   0.0000 
885 H2      16.8289    29.3791    27.3594 H     295 HOH   0.0000 
886 O      -29.6688    18.1525    55.4675 O.3   296 HOH   0.0000 
887 H1     -28.7088    18.1525    55.4675 H     296 HOH   0.0000 
888 H2     -29.9590    18.7996    56.1146 H     296 HOH   0.0000 
889 O       -5.2144    42.5204    59.5156 O.3   297 HOH   0.0000 
890 H1      -4.2544    42.5204    59.5156 H     297 HOH   0.0000 
891 H2      -5.5047    43.1675    60.1626 H     297 HOH   0.0000 
892 O      -25.5642    26.0670    56.8782 O.3   298 HOH   0.0000 
893 H1     -24.6042    26.0670    56.8782 H     298 HOH   0.0000 
894 H2     -25.8545    26.7141    57.5253 H     298 HOH   0.0000 
895 O      -10.2081    23.0143    15.8961 O.3   299 HOH   0.0000 
896 H1      -9.2481    23.0143    15.8961 H     299 HOH   0.0000 
897 H2     -10.4983    23.6614    16.5431 H     299 HOH   0.0000 
898 O      -36.9750    44.6441    53.6843 O.3   300 HOH   0.0000 
899 H1     -36.0150    44.6441    53.6843 H     300 HOH   0.0000 
900 H2     -37.2653    45.2911    54.3314 H     300 HOH   0.0000 
901 O      -17.3995    -0.7662    38.8990 O.3   301 HOH  -0.8340 
902 H1     -18.3489    -0.8856    38.9226 H     301 HOH   0.4170 
903 H2     -17.2139    -0.4957    37.9997 H     301 HOH   0.4170 
904 O      -15.5513    -4.5759    16.1533 O.3   302 HOH   0.0000 
905 H1     -14.5913    -4.5759    16.1533 H     302 HOH   0.0000 
906 H2     -15.8416    -3.9288    16.8004 H     302 HOH   0.0000 
907 O      -14.3236    -6.1100    21.8443 O.3   303 HOH   0.0000 
908 H1     -13.3636    -6.1100    21.8443 H     303 HOH   0.0000 
909 H2     -14.6139    -5.4630    22.4913 H     303 HOH   0.0000 
910 O      -18.8550    28.7517    38.5687 O.3   304 HOH   0.0000 
911 H1     -17.8950    28.7517    38.5687 H     304 HOH   0.0000 
912 H2     -19.1452    29.3987    39.2158 H     304 HOH   0.0000 
913 O      -10.1455    49.2234    35.3759 O.3   305 HOH   0.0000 
914 H1      -9.1855    49.2234    35.3759 H     305 HOH   0.0000 
915 H2     -10.4357    49.8705    36.0229 H     305 HOH   0.0000 
916 O       -7.1101    13.6955     9.6946 O.3   306 HOH   0.0000 
917 H1      -6.1501    13.6955     9.6946 H     306 HOH   0.0000 
918 H2      -7.4004    14.3426    10.3417 H     306 HOH   0.0000 
919 O      -15.4759    -5.9909    19.3820 O.3   307 HOH   0.0000 
920 H1     -14.5159    -5.9909    19.3820 H     307 HOH   0.0000 
921 H2     -15.7662    -5.3438    20.0291 H     307 HOH   0.0000 
@<TRIPOS>BOND
  1   1   2  1   
  2   1   3  1   
  3   4   5  1   
  4   4   6  1   
  5   7   8  1   
  6   7   9  1   
  7  10  11  1   
  8  10  12  1   
  9  13  14  1   
 10  13  15  1   
 11  16  17  1   
 12  16  18  1   
 13  19  20  1   
 14  19  21  1   
 15  22  23  1   
 16  22  24  1   
 17  25  26  1   
 18  25  27  1   
 19  28  29  1   
 20  28  30  1   
 21  31  32  1   
 22  31  33  1   
 23  34  35  1   
 24  34  36  1   
 25  37  38  1   
 26  37  39  1   
 27  40  41  1   
 28  40  42  1   
 29  43  44  1   
 30  43  45  1   
 31  46  47  1   
 32  46  48  1   
 33  49  50  1   
 34  49  51  1   
 35  52  53  1   
 36  52  54  1   
 37  55  56  1   
 38  55  57  1   
 39  58  59  1   
 40  58  60  1   
 41  61  62  1   
 42  61  63  1   
 43  64  65  1   
 44  64  66  1   
 45  67  68  1   
 46  67  69  1   
 47  70  71  1   
 48  70  72  1   
 49  73  74  1   
 50  73  75  1   
 51  76  77  1   
 52  76  78  1   
 53  79  80  1   
 54  79  81  1   
 55  82  83  1   
 56  82  84  1   
 57  85  86  1   
 58  85  87  1   
 59  88  89  1   
 60  88  90  1   
 61  91  92  1   
 62  91  93  1   
 63  94  95  1   
 64  94  96  1   
 65  97  98  1   
 66  97  99  1   
 67 100 101  1   
 68 100 102  1   
 69 103 104  1   
 70 103 105  1   
 71 106 107  1   
 72 106 108  1   
 73 109 110  1   
 74 109 111  1   
 75 112 113  1   
 76 112 114  1   
 77 115 116  1   
 78 115 117  1   
 79 118 119  1   
 80 118 120  1   
 81 121 122  1   
 82 121 123  1   
 83 124 125  1   
 84 124 126  1   
 85 127 128  1   
 86 127 129  1   
 87 130 131  1   
 88 130 132  1   
 89 133 134  1   
 90 133 135  1   
 91 136 137  1   
 92 136 138  1   
 93 139 140  1   
 94 139 141  1   
 95 142 143  1   
 96 142 144  1   
 97 145 146  1   
 98 145 147  1   
 99 148 149  1   
100 148 150  1   
101 151 152  1   
102 151 153  1   
103 154 155  1   
104 154 156  1   
105 157 158  1   
106 157 159  1   
107 160 161  1   
108 160 162  1   
109 163 164  1   
110 163 165  1   
111 166 167  1   
112 166 168  1   
113 169 170  1   
114 169 171  1   
115 172 173  1   
116 172 174  1   
117 175 176  1   
118 175 177  1   
119 178 179  1   
120 178 180  1   
121 181 182  1   
122 181 183  1   
123 184 185  1   
124 184 186  1   
125 187 188  1   
126 187 189  1   
127 190 191  1   
128 190 192  1   
129 193 194  1   
130 193 195  1   
131 196 197  1   
132 196 198  1   
133 199 200  1   
134 199 201  1   
135 202 203  1   
136 202 204  1   
137 205 206  1   
138 205 207  1   
139 208 209  1   
140 208 210  1   
141 211 212  1   
142 211 213  1   
143 214 215  1   
144 214 216  1   
145 217 218  1   
146 217 219  1   
147 220 221  1   
148 220 222  1   
149 223 224  1   
150 223 225  1   
151 226 227  1   
152 226 228  1   
153 229 230  1   
154 229 231  1   
155 232 233  1   
156 232 234  1   
157 235 236  1   
158 235 237  1   
159 238 239  1   
160 238 240  1   
161 241 242  1   
162 241 243  1   
163 244 245  1   
164 244 246  1   
165 247 248  1   
166 247 249  1   
167 250 251  1   
168 250 252  1   
169 253 254  1   
170 253 255  1   
171 256 257  1   
172 256 258  1   
173 259 260  1   
174 259 261  1   
175 262 263  1   
176 262 264  1   
177 265 266  1   
178 265 267  1   
179 268 269  1   
180 268 270  1   
181 271 272  1   
182 271 273  1   
183 274 275  1   
184 274 276  1   
185 277 278  1   
186 277 279  1   
187 280 281  1   
188 280 282  1   
189 283 284  1   
190 283 285  1   
191 286 287  1   
192 286 288  1   
193 289 290  1   
194 289 291  1   
195 292 293  1   
196 292 294  1   
197 295 296  1   
198 295 297  1   
199 298 299  1   
200 298 300  1   
201 301 302  1   
202 301 303  1   
203 304 305  1   
204 304 306  1   
205 307 308  1   
206 307 309  1   
207 310 311  1   
208 310 312  1   
209 313 314  1   
210 313 315  1   
211 316 317  1   
212 316 318  1   
213 319 320  1   
214 319 321  1   
215 322 323  1   
216 322 324  1   
217 325 326  1   
218 325 327  1   
219 328 329  1   
220 328 330  1   
221 331 332  1   
222 331 333  1   
223 334 335  1   
224 334 336  1   
225 337 338  1   
226 337 339  1   
227 340 341  1   
228 340 342  1   
229 343 344  1   
230 343 345  1   
231 346 347  1   
232 346 348  1   
233 349 350  1   
234 349 351  1   
235 352 353  1   
236 352 354  1   
237 355 356  1   
238 355 357  1   
239 358 359  1   
240 358 360  1   
241 361 362  1   
242 361 363  1   
243 364 365  1   
244 364 366  1   
245 367 368  1   
246 367 369  1   
247 370 371  1   
248 370 372  1   
249 373 374  1   
250 373 375  1   
251 376 377  1   
252 376 378  1   
253 379 380  1   
254 379 381  1   
255 382 383  1   
256 382 384  1   
257 385 386  1   
258 385 387  1   
259 388 389  1   
260 388 390  1   
261 391 392  1   
262 391 393  1   
263 394 395  1   
264 394 396  1   
265 397 398  1   
266 397 399  1   
267 400 401  1   
268 400 402  1   
269 403 404  1   
270 403 405  1   
271 406 407  1   
272 406 408  1   
273 409 410  1   
274 409 411  1   
275 412 413  1   
276 412 414  1   
277 415 416  1   
278 415 417  1   
279 418 419  1   
280 418 420  1   
281 421 422  1   
282 421 423  1   
283 424 425  1   
284 424 426  1   
285 427 428  1   
286 427 429  1   
287 430 431  1   
288 430 432  1   
289 433 434  1   
290 433 435  1   
291 436 437  1   
292 436 438  1   
293 439 440  1   
294 439 441  1   
295 442 443  1   
296 442 444  1   
297 445 446  1   
298 445 447  1   
299 448 449  1   
300 448 450  1   
301 451 452  1   
302 451 453  1   
303 454 455  1   
304 454 456  1   
305 457 458  1   
306 457 459  1   
307 460 461  1   
308 460 462  1   
309 463 464  1   
310 463 465  1   
311 466 467  1   
312 466 468  1   
313 469 470  1   
314 469 471  1   
315 472 473  1   
316 472 474  1   
317 475 476  1   
318 475 477  1   
319 478 479  1   
320 478 480  1   
321 481 482  1   
322 481 483  1   
323 484 485  1   
324 484 486  1   
325 487 488  1   
326 487 489  1   
327 490 491  1   
328 490 492  1   
329 493 494  1   
330 493 495  1   
331 496 497  1   
332 496 498  1   
333 499 500  1   
334 499 501  1   
335 502 503  1   
336 502 504  1   
337 505 506  1   
338 505 507  1   
339 508 509  1   
340 508 510  1   
341 511 512  1   
342 511 513  1   
343 514 515  1   
344 514 516  1   
345 517 518  1   
346 517 519  1   
347 520 521  1   
348 520 522  1   
349 523 524  1   
350 523 525  1   
351 526 527  1   
352 526 528  1   
353 529 530  1   
354 529 531  1   
355 532 533  1   
356 532 534  1   
357 535 536  1   
358 535 537  1   
359 538 539  1   
360 538 540  1   
361 541 542  1   
362 541 543  1   
363 544 545  1   
364 544 546  1   
365 547 548  1   
366 547 549  1   
367 550 551  1   
368 550 552  1   
369 553 554  1   
370 553 555  1   
371 556 557  1   
372 556 558  1   
373 559 560  1   
374 559 561  1   
375 562 563  1   
376 562 564  1   
377 565 566  1   
378 565 567  1   
379 568 569  1   
380 568 570  1   
381 571 572  1   
382 571 573  1   
383 574 575  1   
384 574 576  1   
385 577 578  1   
386 577 579  1   
387 580 581  1   
388 580 582  1   
389 583 584  1   
390 583 585  1   
391 586 587  1   
392 586 588  1   
393 589 590  1   
394 589 591  1   
395 592 593  1   
396 592 594  1   
397 595 596  1   
398 595 597  1   
399 598 599  1   
400 598 600  1   
401 601 602  1   
402 601 603  1   
403 604 605  1   
404 604 606  1   
405 607 608  1   
406 607 609  1   
407 610 611  1   
408 610 612  1   
409 613 614  1   
410 613 615  1   
411 616 617  1   
412 616 618  1   
413 619 620  1   
414 619 621  1   
415 622 623  1   
416 622 624  1   
417 625 626  1   
418 625 627  1   
419 628 629  1   
420 628 630  1   
421 631 632  1   
422 631 633  1   
423 634 635  1   
424 634 636  1   
425 637 638  1   
426 637 639  1   
427 640 641  1   
428 640 642  1   
429 643 644  1   
430 643 645  1   
431 646 647  1   
432 646 648  1   
433 649 650  1   
434 649 651  1   
435 652 653  1   
436 652 654  1   
437 655 656  1   
438 655 657  1   
439 658 659  1   
440 658 660  1   
441 661 662  1   
442 661 663  1   
443 664 665  1   
444 664 666  1   
445 667 668  1   
446 667 669  1   
447 670 671  1   
448 670 672  1   
449 673 674  1   
450 673 675  1   
451 676 677  1   
452 676 678  1   
453 679 680  1   
454 679 681  1   
455 682 683  1   
456 682 684  1   
457 685 686  1   
458 685 687  1   
459 688 689  1   
460 688 690  1   
461 691 692  1   
462 691 693  1   
463 694 695  1   
464 694 696  1   
465 697 698  1   
466 697 699  1   
467 700 701  1   
468 700 702  1   
469 703 704  1   
470 703 705  1   
471 706 707  1   
472 706 708  1   
473 709 710  1   
474 709 711  1   
475 712 713  1   
476 712 714  1   
477 715 716  1   
478 715 717  1   
479 718 719  1   
480 718 720  1   
481 721 722  1   
482 721 723  1   
483 724 725  1   
484 724 726  1   
485 727 728  1   
486 727 729  1   
487 730 731  1   
488 730 732  1   
489 733 734  1   
490 733 735  1   
491 736 737  1   
492 736 738  1   
493 739 740  1   
494 739 741  1   
495 742 743  1   
496 742 744  1   
497 745 746  1   
498 745 747  1   
499 748 749  1   
500 748 750  1   
501 751 752  1   
502 751 753  1   
503 754 755  1   
504 754 756  1   
505 757 758  1   
506 757 759  1   
507 760 761  1   
508 760 762  1   
509 763 764  1   
510 763 765  1   
511 766 767  1   
512 766 768  1   
513 769 770  1   
514 769 771  1   
515 772 773  1   
516 772 774  1   
517 775 776  1   
518 775 777  1   
519 778 779  1   
520 778 780  1   
521 781 782  1   
522 781 783  1   
523 784 785  1   
524 784 786  1   
525 787 788  1   
526 787 789  1   
527 790 791  1   
528 790 792  1   
529 793 794  1   
530 793 795  1   
531 796 797  1   
532 796 798  1   
533 799 800  1   
534 799 801  1   
535 802 803  1   
536 802 804  1   
537 805 806  1   
538 805 807  1   
539 808 809  1   
540 808 810  1   
541 811 812  1   
542 811 813  1   
543 814 815  1   
544 814 816  1   
545 817 818  1   
546 817 819  1   
547 820 821  1   
548 820 822  1   
549 823 824  1   
550 823 825  1   
551 826 827  1   
552 826 828  1   
553 829 830  1   
554 829 831  1   
555 832 833  1   
556 832 834  1   
557 835 836  1   
558 835 837  1   
559 838 839  1   
560 838 840  1   
561 841 842  1   
562 841 843  1   
563 844 845  1   
564 844 846  1   
565 847 848  1   
566 847 849  1   
567 850 851  1   
568 850 852  1   
569 853 854  1   
570 853 855  1   
571 856 857  1   
572 856 858  1   
573 859 860  1   
574 859 861  1   
575 862 863  1   
576 862 864  1   
577 865 866  1   
578 865 867  1   
579 868 869  1   
580 868 870  1   
581 871 872  1   
582 871 873  1   
583 874 875  1   
584 874 876  1   
585 877 878  1   
586 877 879  1   
587 880 881  1   
588 880 882  1   
589 883 884  1   
590 883 885  1   
591 886 887  1   
592 886 888  1   
593 889 890  1   
594 889 891  1   
595 892 893  1   
596 892 894  1   
597 895 896  1   
598 895 897  1   
599 898 899  1   
600 898 900  1   
601 901 902  1   
602 901 903  1   
603 904 905  1   
604 904 906  1   
605 907 908  1   
606 907 909  1   
607 910 911  1   
608 910 912  1   
609 913 914  1   
610 913 915  1   
611 916 917  1   
612 916 918  1   
613 919 920  1   
614 919 921  1   
@<TRIPOS>SUBSTRUCTURE
  1 HOH   1 GROUP 4 A **** 0
  2 HOH   4 GROUP 4 A **** 0
  3 HOH   7 GROUP 4 A **** 0
  4 HOH  10 GROUP 4 A **** 0
  5 HOH  13 GROUP 4 A **** 0
  6 HOH  16 GROUP 4 A **** 0
  7 HOH  19 GROUP 4 A **** 0
  8 HOH  22 GROUP 4 A **** 0
  9 HOH  25 GROUP 4 A **** 0
 10 HOH  28 GROUP 4 A **** 0
 11 HOH  31 GROUP 4 A **** 0
 12 HOH  34 GROUP 4 A **** 0
 13 HOH  37 GROUP 4 A **** 0
 14 HOH  40 GROUP 4 A **** 0
 15 HOH  43 GROUP 4 A **** 0
 16 HOH  46 GROUP 4 A **** 0
 17 HOH  49 GROUP 4 A **** 0
 18 HOH  52 GROUP 4 A **** 0
 19 HOH  55 GROUP 4 A **** 0
 20 HOH  58 GROUP 4 A **** 0
 21 HOH  61 GROUP 4 A **** 0
 22 HOH  64 GROUP 4 A **** 0
 23 HOH  67 GROUP 4 A **** 0
 24 HOH  70 GROUP 4 A **** 0
 25 HOH  73 GROUP 4 A **** 0
 26 HOH  76 GROUP 4 A **** 0
 27 HOH  79 GROUP 4 A **** 0
 28 HOH  82 GROUP 4 A **** 0
 29 HOH  85 GROUP 4 A **** 0
 30 HOH  88 GROUP 4 A **** 0
 31 HOH  91 GROUP 4 A **** 0
 32 HOH  94 GROUP 4 A **** 0
 33 HOH  97 GROUP 4 A **** 0
 34 HOH 100 GROUP 4 A **** 0
 35 HOH 103 GROUP 4 A **** 0
 36 HOH 106 GROUP 4 A **** 0
 37 HOH 109 GROUP 4 A **** 0
 38 HOH 112 GROUP 4 A **** 0
 39 HOH 115 GROUP 4 A **** 0
 40 HOH 118 GROUP 4 A **** 0
 41 HOH 121 GROUP 4 A **** 0
 42 HOH 124 GROUP 4 A **** 0
 43 HOH 127 GROUP 4 A **** 0
 44 HOH 130 GROUP 4 A **** 0
 45 HOH 133 GROUP 4 A **** 0
 46 HOH 136 GROUP 4 A **** 0
 47 HOH 139 GROUP 4 A **** 0
 48 HOH 142 GROUP 4 A **** 0
 49 HOH 145 GROUP 4 A **** 0
 50 HOH 148 GROUP 4 A **** 0
 51 HOH 151 GROUP 4 A **** 0
 52 HOH 154 GROUP 4 A **** 0
 53 HOH 157 GROUP 4 A **** 0
 54 HOH 160 GROUP 4 A **** 0
 55 HOH 163 GROUP 4 A **** 0
 56 HOH 166 GROUP 4 A **** 0
 57 HOH 169 GROUP 4 A **** 0
 58 HOH 172 GROUP 4 A **** 0
 59 HOH 175 GROUP 4 A **** 0
 60 HOH 178 GROUP 4 A **** 0
 61 HOH 181 GROUP 4 A **** 0
 62 HOH 184 GROUP 4 A **** 0
 63 HOH 187 GROUP 4 A **** 0
 64 HOH 190 GROUP 4 A **** 0
 65 HOH 193 GROUP 4 A **** 0
 66 HOH 196 GROUP 4 A **** 0
 67 HOH 199 GROUP 4 A **** 0
 68 HOH 202 GROUP 4 A **** 0
 69 HOH 205 GROUP 4 A **** 0
 70 HOH 208 GROUP 4 A **** 0
 71 HOH 211 GROUP 4 A **** 0
 72 HOH 214 GROUP 4 A **** 0
 73 HOH 217 GROUP 4 A **** 0
 74 HOH 220 GROUP 4 A **** 0
 75 HOH 223 GROUP 4 A **** 0
 76 HOH 226 GROUP 4 A **** 0
 77 HOH 229 GROUP 4 A **** 0
 78 HOH 232 GROUP 4 A **** 0
 79 HOH 235 GROUP 4 A **** 0
 80 HOH 238 GROUP 4 A **** 0
 81 HOH 241 GROUP 4 A **** 0
 82 HOH 244 GROUP 4 A **** 0
 83 HOH 247 GROUP 4 A **** 0
 84 HOH 250 GROUP 4 A **** 0
 85 HOH 253 GROUP 4 A **** 0
 86 HOH 256 GROUP 4 A **** 0
 87 HOH 259 GROUP 4 A **** 0
 88 HOH 262 GROUP 4 A **** 0
 89 HOH 265 GROUP 4 A **** 0
 90 HOH 268 GROUP 4 A **** 0
 91 HOH 271 GROUP 4 A **** 0
 92 HOH 274 GROUP 4 A **** 0
 93 HOH 277 GROUP 4 A **** 0
 94 HOH 280 GROUP 4 A **** 0
 95 HOH 283 GROUP 4 A **** 0
 96 HOH 286 GROUP 4 A **** 0
 97 HOH 289 GROUP 4 A **** 0
 98 HOH 292 GROUP 4 A **** 0
 99 HOH 295 GROUP 4 A **** 0
100 HOH 298 GROUP 4 A **** 0
101 HOH 301 GROUP 4 A **** 0
102 HOH 304 GROUP 4 A **** 0
103 HOH 307 GROUP 4 A **** 0
104 HOH 310 GROUP 4 A **** 0
105 HOH 313 GROUP 4 A **** 0
106 HOH 316 GROUP 4 A **** 0
107 HOH 319 GROUP 4 A **** 0
108 HOH 322 GROUP 4 A **** 0
109 HOH 325 GROUP 4 A **** 0
110 HOH 328 GROUP 4 A **** 0
111 HOH 331 GROUP 4 A **** 0
112 HOH 334 GROUP 4 A **** 0
113 HOH 337 GROUP 4 A **** 0
114 HOH 340 GROUP 4 A **** 0
115 HOH 343 GROUP 4 A **** 0
116 HOH 346 GROUP 4 A **** 0
117 HOH 349 GROUP 4 A **** 0
118 HOH 352 GROUP 4 A **** 0
119 HOH 355 GROUP 4 A **** 0
120 HOH 358 GROUP 4 A **** 0
121 HOH 361 GROUP 4 A **** 0
122 HOH 364 GROUP 4 A **** 0
123 HOH 367 GROUP 4 A **** 0
124 HOH 370 GROUP 4 A **** 0
125 HOH 373 GROUP 4 A **** 0
126 HOH 376 GROUP 4 A **** 0
127 HOH 379 GROUP 4 A **** 0
128 HOH 382 GROUP 4 A **** 0
129 HOH 385 GROUP 4 A **** 0
130 HOH 388 GROUP 4 A **** 0
131 HOH 391 GROUP 4 A **** 0
132 HOH 394 GROUP 4 A **** 0
133 HOH 397 GROUP 4 A **** 0
134 HOH 400 GROUP 4 A **** 0
135 HOH 403 GROUP 4 A **** 0
136 HOH 406 GROUP 4 A **** 0
137 HOH 409 GROUP 4 A **** 0
138 HOH 412 GROUP 4 A **** 0
139 HOH 415 GROUP 4 A **** 0
140 HOH 418 GROUP 4 A **** 0
141 HOH 421 GROUP 4 A **** 0
142 HOH 424 GROUP 4 A **** 0
143 HOH 427 GROUP 4 A **** 0
144 HOH 430 GROUP 4 A **** 0
145 HOH 433 GROUP 4 A **** 0
146 HOH 436 GROUP 4 A **** 0
147 HOH 439 GROUP 4 A **** 0
148 HOH 442 GROUP 4 A **** 0
149 HOH 445 GROUP 4 A **** 0
150 HOH 448 GROUP 4 A **** 0
151 HOH 451 GROUP 4 A **** 0
152 HOH 454 GROUP 4 A **** 0
153 HOH 457 GROUP 4 A **** 0
154 HOH 460 GROUP 4 A **** 0
155 HOH 463 GROUP 4 A **** 0
156 HOH 466 GROUP 4 A **** 0
157 HOH 469 GROUP 4 A **** 0
158 HOH 472 GROUP 4 A **** 0
159 HOH 475 GROUP 4 A **** 0
160 HOH 478 GROUP 4 A **** 0
161 HOH 481 GROUP 4 A **** 0
162 HOH 484 GROUP 4 A **** 0
163 HOH 487 GROUP 4 A **** 0
164 HOH 490 GROUP 4 A **** 0
165 HOH 493 GROUP 4 A **** 0
166 HOH 496 GROUP 4 A **** 0
167 HOH 499 GROUP 4 A **** 0
168 HOH 502 GROUP 4 A **** 0
169 HOH 505 GROUP 4 A **** 0
170 HOH 508 GROUP 4 A **** 0
171 HOH 511 GROUP 4 A **** 0
172 HOH 514 GROUP 4 A **** 0
173 HOH 517 GROUP 4 A **** 0
174 HOH 520 GROUP 4 A **** 0
175 HOH 523 GROUP 4 A **** 0
176 HOH 526 GROUP 4 A **** 0
177 HOH 529 GROUP 4 A **** 0
178 HOH 532 GROUP 4 A **** 0
179 HOH 535 GROUP 4 A **** 0
180 HOH 538 GROUP 4 A **** 0
181 HOH 541 GROUP 4 A **** 0
182 HOH 544 GROUP 4 A **** 0
183 HOH 547 GROUP 4 A **** 0
184 HOH 550 GROUP 4 A **** 0
185 HOH 553 GROUP 4 A **** 0
186 HOH 556 GROUP 4 A **** 0
187 HOH 559 GROUP 4 A **** 0
188 HOH 562 GROUP 4 A **** 0
189 HOH 565 GROUP 4 A **** 0
190 HOH 568 GROUP 4 A **** 0
191 HOH 571 GROUP 4 A **** 0
192 HOH 574 GROUP 4 A **** 0
193 HOH 577 GROUP 4 A **** 0
194 HOH 580 GROUP 4 A **** 0
195 HOH 583 GROUP 4 A **** 0
196 HOH 586 GROUP 4 A **** 0
197 HOH 589 GROUP 4 A **** 0
198 HOH 592 GROUP 4 A **** 0
199 HOH 595 GROUP 4 A **** 0
200 HOH 598 GROUP 4 A **** 0
201 HOH 601 GROUP 4 A **** 0
202 HOH 604 GROUP 4 A **** 0
203 HOH 607 GROUP 4 A **** 0
204 HOH 610 GROUP 4 A **** 0
205 HOH 613 GROUP 4 A **** 0
206 HOH 616 GROUP 4 A **** 0
207 HOH 619 GROUP 4 A **** 0
208 HOH 622 GROUP 4 A **** 0
209 HOH 625 GROUP 4 A **** 0
210 HOH 628 GROUP 4 A **** 0
211 HOH 631 GROUP 4 A **** 0
212 HOH 634 GROUP 4 A **** 0
213 HOH 637 GROUP 4 A **** 0
214 HOH 640 GROUP 4 A **** 0
215 HOH 643 GROUP 4 A **** 0
216 HOH 646 GROUP 4 A **** 0
217 HOH 649 GROUP 4 A **** 0
218 HOH 652 GROUP 4 A **** 0
219 HOH 655 GROUP 4 A **** 0
220 HOH 658 GROUP 4 A **** 0
221 HOH 661 GROUP 4 A **** 0
222 HOH 664 GROUP 4 A **** 0
223 HOH 667 GROUP 4 A **** 0
224 HOH 670 GROUP 4 A **** 0
225 HOH 673 GROUP 4 A **** 0
226 HOH 676 GROUP 4 A **** 0
227 HOH 679 GROUP 4 A **** 0
228 HOH 682 GROUP 4 A **** 0
229 HOH 685 GROUP 4 A **** 0
230 HOH 688 GROUP 4 A **** 0
231 HOH 691 GROUP 4 A **** 0
232 HOH 694 GROUP 4 A **** 0
233 HOH 697 GROUP 4 A **** 0
234 HOH 700 GROUP 4 A **** 0
235 HOH 703 GROUP 4 A **** 0
236 HOH 706 GROUP 4 A **** 0
237 HOH 709 GROUP 4 A **** 0
238 HOH 712 GROUP 4 A **** 0
239 HOH 715 GROUP 4 A **** 0
240 HOH 718 GROUP 4 A **** 0
241 HOH 721 GROUP 4 A **** 0
242 HOH 724 GROUP 4 A **** 0
243 HOH 727 GROUP 4 A **** 0
244 HOH 730 GROUP 4 A **** 0
245 HOH 733 GROUP 4 A **** 0
246 HOH 736 GROUP 4 A **** 0
247 HOH 739 GROUP 4 A **** 0
248 HOH 742 GROUP 4 A **** 0
249 HOH 745 GROUP 4 A **** 0
250 HOH 748 GROUP 4 A **** 0
251 HOH 751 GROUP 4 A **** 0
252 HOH 754 GROUP 4 A **** 0
253 HOH 757 GROUP 4 A **** 0
254 HOH 760 GROUP 4 A **** 0
255 HOH 763 GROUP 4 A **** 0
256 HOH 766 GROUP 4 A **** 0
257 HOH 769 GROUP 4 A **** 0
258 HOH 772 GROUP 4 A **** 0
259 HOH 775 GROUP 4 A **** 0
260 HOH 778 GROUP 4 A **** 0
261 HOH 781 GROUP 4 A **** 0
262 HOH 784 GROUP 4 A **** 0
263 HOH 787 GROUP 4 A **** 0
264 HOH 790 GROUP 4 A **** 0
265 HOH 793 GROUP 4 A **** 0
266 HOH 796 GROUP 4 A **** 0
267 HOH 799 GROUP 4 A **** 0
268 HOH 802 GROUP 4 A **** 0
269 HOH 805 GROUP 4 A **** 0
270 HOH 808 GROUP 4 A **** 0
271 HOH 811 GROUP 4 A **** 0
272 HOH 814 GROUP 4 A **** 0
273 HOH 817 GROUP 4 A **** 0
274 HOH 820 GROUP 4 A **** 0
275 HOH 823 GROUP 4 A **** 0
276 HOH 826 GROUP 4 A **** 0
277 HOH 829 GROUP 4 A **** 0
278 HOH 832 GROUP 4 A **** 0
279 HOH 835 GROUP 4 A **** 0
280 HOH 838 GROUP 4 A **** 0
281 HOH 841 GROUP 4 A **** 0
282 HOH 844 GROUP 4 A **** 0
283 HOH 847 GROUP 4 A **** 0
284 HOH 850 GROUP 4 A **** 0
285 HOH 853 GROUP 4 A **** 0
286 HOH 856 GROUP 4 A **** 0
287 HOH 859 GROUP 4 A **** 0
288 HOH 862 GROUP 4 A **** 0
289 HOH 865 GROUP 4 A **** 0
290 HOH 868 GROUP 4 A **** 0
291 HOH 871 GROUP 4 A **** 0
292 HOH 874 GROUP 4 A **** 0
293 HOH 877 GROUP 4 A **** 0
294 HOH 880 GROUP 4 A **** 0
295 HOH 883 GROUP 4 A **** 0
296 HOH 886 GROUP 4 A **** 0
297 HOH 889 GROUP 4 A **** 0
298 HOH 892 GROUP 4 A **** 0
299 HOH 895 GROUP 4 A **** 0
300 HOH 898 GROUP 4 A **** 0
301 HOH 901 GROUP 4 A **** 0
302 HOH 904 GROUP 4 A **** 0
303 HOH 907 GROUP 4 A **** 0
304 HOH 910 GROUP 4 A **** 0
305 HOH 913 GROUP 4 A **** 0
306 HOH 916 GROUP 4 A **** 0
307 HOH 919 GROUP 4 A **** 0

# MOE 2012.10 (io_trps.svl 2012.10)
