@<TRIPOS>MOLECULE
2hz4.B
66 73 1 0 0 
SMALL
USER_CHARGES


@<TRIPOS>ATOM
  1 CAB     -0.7950    15.9737    38.6372 C.3   1 Q4ST   0.0400 
  2 HAB1    -1.2654    16.6114    37.8888 H     1 Q4ST   0.0800 
  3 HAB2    -0.3932    16.5916    39.4403 H     1 Q4ST   0.0800 
  4 HAB3    -1.5349    15.2847    39.0444 H     1 Q4ST   0.0800 
  5 OAQ      0.2585    15.2357    38.0355 O.3   1 Q4ST  -0.5600 
  6 CBF      1.1415    14.2648    38.6939 C.3   1 Q4ST   0.2000 
  7 HBF      1.5158    13.7892    37.7873 H     1 Q4ST   0.0800 
  8 CBD      0.5395    13.0526    39.4409 C.3   1 Q4ST   0.4230 
  9 HBD      1.3096    12.3099    39.6493 H     1 Q4ST   0.0800 
 10 NAO     -0.4226    12.3103    38.5928 N.4   1 Q4ST  -0.9060 
 11 HAO2    -1.0553    13.0033    38.2192 H     1 Q4ST   0.4500 
 12 HAO1     0.1210    11.9108    37.8411 H     1 Q4ST   0.4500 
 13 CAA     -1.2785    11.2113    39.1057 C.3   1 Q4ST   0.2630 
 14 HAA1    -1.8940    11.5823    39.9252 H     1 Q4ST   0.0800 
 15 HAA2    -0.6486    10.3972    39.4641 H     1 Q4ST   0.0800 
 16 HAA3    -1.9215    10.8473    38.3043 H     1 Q4ST   0.0800 
 17 CAN      0.0205    13.5033    40.8083 C.3   1 Q4ST  -0.1600 
 18 HAN1    -0.2925    12.6362    41.3899 H     1 Q4ST   0.0800 
 19 HAN2    -0.8252    14.1787    40.6792 H     1 Q4ST   0.0800 
 20 CBE      1.1682    14.2337    41.5332 C.3   1 Q4ST   0.4556 
 21 HBE      1.3982    13.4955    42.3014 H     1 Q4ST   0.0800 
 22 OAR      2.4246    14.4309    40.8545 O.3   1 Q4ST  -0.5600 
 23 CBI      2.3655    14.8979    39.4744 C.3   1 Q4ST   0.5356 
 24 CAC      3.7076    14.3010    38.9524 C.3   1 Q4ST  -0.2400 
 25 HAC1     3.6686    13.2132    39.0111 H     1 Q4ST   0.0800 
 26 HAC2     4.5312    14.6686    39.5645 H     1 Q4ST   0.0800 
 27 HAC3     3.8615    14.6037    37.9166 H     1 Q4ST   0.0800 
 28 NBH      2.3400    16.3907    39.4260 N.pl3 1 Q4ST   0.0476 
 29 CAY      2.8637    17.2950    38.4536 C.ar  1 Q4ST  -0.1516 
 30 CAH      3.6043    17.1028    37.2669 C.ar  1 Q4ST  -0.1500 
 31 HAH      3.8410    16.0996    36.9443 H     1 Q4ST   0.1500 
 32 CAF      4.0410    18.2045    36.4939 C.ar  1 Q4ST  -0.1500 
 33 HAF      4.6130    18.0385    35.5929 H     1 Q4ST   0.1500 
 34 CAE      3.7303    19.5172    36.8983 C.ar  1 Q4ST  -0.1500 
 35 HAE      4.0486    20.3616    36.3050 H     1 Q4ST   0.1500 
 36 CAG      2.9974    19.7161    38.0894 C.ar  1 Q4ST  -0.1500 
 37 HAG      2.7505    20.7119    38.4266 H     1 Q4ST   0.1500 
 38 CAX      2.5925    18.5747    38.8338 C.ar  1 Q4ST   0.0000 
 39 CBA      1.8411    18.5182    40.0792 C.ar  1 Q4ST   0.0000 
 40 CBC      1.6938    17.1313    40.4363 C.ar  1 Q4ST  -0.1516 
 41 CBB      1.0259    16.7565    41.5578 C.ar  1 Q4ST  -0.1516 
 42 NBG      0.7414    15.5013    42.0811 N.pl3 1 Q4ST   0.0476 
 43 CAV      0.0303    15.6254    43.2426 C.2   1 Q4ST  -0.3316 
 44 CAL     -0.4533    14.5025    44.1292 C.3   1 Q4ST   0.0200 
 45 HAL1     0.3480    14.2041    44.8051 H     1 Q4ST   0.0800 
 46 HAL2    -0.7430    13.6525    43.5114 H     1 Q4ST   0.0800 
 47 CAJ     -1.6675    14.9750    44.9517 C.3   1 Q4ST  -0.1600 
 48 HAJ1    -1.8983    14.2134    45.6966 H     1 Q4ST   0.0800 
 49 HAJ2    -2.5164    15.0938    44.2785 H     1 Q4ST   0.0800 
 50 CAI     -1.4278    16.3140    45.6786 C.3   1 Q4ST  -0.1600 
 51 HAI1    -0.6534    16.1722    46.4324 H     1 Q4ST   0.0800 
 52 HAI2    -2.3541    16.6229    46.1630 H     1 Q4ST   0.0800 
 53 CAK     -0.9819    17.4179    44.7106 C.3   1 Q4ST   0.0210 
 54 HAK1    -0.3568    18.1209    45.2612 H     1 Q4ST   0.0800 
 55 HAK2    -1.8721    17.9311    44.3467 H     1 Q4ST   0.0800 
 56 CAT     -0.1977    16.9259    43.5132 C.2   1 Q4ST  -0.1810 
 57 CAZ      0.4096    17.7078    42.4564 C.ar  1 Q4ST   0.0000 
 58 CAW      0.5619    19.0827    42.1093 C.ar  1 Q4ST   0.0862 
 59 CAU      1.2599    19.4631    40.9583 C.ar  1 Q4ST  -0.1435 
 60 CAM      1.2771    20.9534    40.8028 C.3   1 Q4ST   0.2836 
 61 HAM1     0.7756    21.2754    39.8902 H     1 Q4ST   0.0800 
 62 HAM2     2.2901    21.3552    40.8220 H     1 Q4ST   0.0800 
 63 NAP      0.5187    21.3145    42.0045 N.am  1 Q4ST  -0.7301 
 64 HAP      0.3226    22.2769    42.2399 H     1 Q4ST   0.3700 
 65 CAS      0.1009    20.3047    42.7713 C.2   1 Q4ST   0.5438 
 66 OAD     -0.5374    20.4158    43.8114 O.2   1 Q4ST  -0.5700 
@<TRIPOS>BOND
  1   1   2  1   
  2   1   3  1   
  3   1   4  1   
  4   1   5  1   
  5   5   6  1   
  6   6   7  1   
  7   6   8  1   
  8   6  23  1   
  9   8   9  1   
 10   8  10  1   
 11   8  17  1   
 12  10  11  1   
 13  10  12  1   
 14  10  13  1   
 15  13  14  1   
 16  13  15  1   
 17  13  16  1   
 18  17  18  1   
 19  17  19  1   
 20  17  20  1   
 21  20  21  1   
 22  20  22  1   
 23  20  42  1   
 24  22  23  1   
 25  23  24  1   
 26  23  28  1   
 27  24  25  1   
 28  24  26  1   
 29  24  27  1   
 30  28  29  1   
 31  28  40  1   
 32  29  30  ar  
 33  29  38  ar  
 34  30  31  1   
 35  30  32  ar  
 36  32  33  1   
 37  32  34  ar  
 38  34  35  1   
 39  34  36  ar  
 40  36  37  1   
 41  36  38  ar  
 42  38  39  1   
 43  39  40  ar  
 44  39  59  ar  
 45  40  41  ar  
 46  41  42  1   
 47  41  57  ar  
 48  42  43  1   
 49  43  44  1   
 50  43  56  2   
 51  44  45  1   
 52  44  46  1   
 53  44  47  1   
 54  47  48  1   
 55  47  49  1   
 56  47  50  1   
 57  50  51  1   
 58  50  52  1   
 59  50  53  1   
 60  53  54  1   
 61  53  55  1   
 62  53  56  1   
 63  56  57  1   
 64  57  58  ar  
 65  58  59  ar  
 66  58  65  1   
 67  59  60  1   
 68  60  61  1   
 69  60  62  1   
 70  60  63  1   
 71  63  64  1   
 72  63  65  am  
 73  65  66  2   
@<TRIPOS>SUBSTRUCTURE
  1 Q4ST  41 GROUP 4 B **** 0

# MOE 2012.10 (io_trps.svl 2012.10)
