@<TRIPOS>MOLECULE
2hz4.B
27 18 9 0 0 
SMALL
USER_CHARGES


@<TRIPOS>ATOM
  1 O       -2.8487     4.2425    27.8613 O.3   1 HOH   0.0000 
  2 H1      -1.8887     4.2425    27.8613 H     1 HOH   0.0000 
  3 H2      -3.1390     4.8896    28.5083 H     1 HOH   0.0000 
  4 O      -16.6135     6.3063    45.8865 O.3   2 HOH   0.0000 
  5 H1     -15.6535     6.3063    45.8865 H     2 HOH   0.0000 
  6 H2     -16.9038     6.9534    46.5335 H     2 HOH   0.0000 
  7 O      -22.3287    24.8486    21.5573 O.3   3 HOH   0.0000 
  8 H1     -21.3687    24.8486    21.5573 H     3 HOH   0.0000 
  9 H2     -22.6190    25.4956    22.2044 H     3 HOH   0.0000 
 10 O        3.7218    22.0306    34.4760 O.3   4 HOH  -0.8340 
 11 H1       3.9782    22.6974    35.1130 H     4 HOH   0.4170 
 12 H2       4.5482    21.6411    34.1905 H     4 HOH   0.4170 
 13 O      -27.4795    16.6166    39.8317 O.3   5 HOH   0.0000 
 14 H1     -26.5195    16.6166    39.8317 H     5 HOH   0.0000 
 15 H2     -27.7698    17.2637    40.4788 H     5 HOH   0.0000 
 16 O      -17.4553    21.8638    14.2939 O.3   6 HOH   0.0000 
 17 H1     -16.4953    21.8638    14.2939 H     6 HOH   0.0000 
 18 H2     -17.7456    22.5108    14.9410 H     6 HOH   0.0000 
 19 O       -6.2174    20.1810    12.4668 O.3   7 HOH   0.0000 
 20 H1      -5.2574    20.1810    12.4668 H     7 HOH   0.0000 
 21 H2      -6.5077    20.8280    13.1138 H     7 HOH   0.0000 
 22 O      -21.9388    12.8018    18.4066 O.3   8 HOH   0.0000 
 23 H1     -20.9788    12.8018    18.4066 H     8 HOH   0.0000 
 24 H2     -22.2291    13.4489    19.0536 H     8 HOH   0.0000 
 25 O        2.8610     6.1079    20.9223 O.3   9 HOH   0.0000 
 26 H1       3.8210     6.1079    20.9223 H     9 HOH   0.0000 
 27 H2       2.5707     6.7549    21.5693 H     9 HOH   0.0000 
@<TRIPOS>BOND
  1   1   2  1   
  2   1   3  1   
  3   4   5  1   
  4   4   6  1   
  5   7   8  1   
  6   7   9  1   
  7  10  11  1   
  8  10  12  1   
  9  13  14  1   
 10  13  15  1   
 11  16  17  1   
 12  16  18  1   
 13  19  20  1   
 14  19  21  1   
 15  22  23  1   
 16  22  24  1   
 17  25  26  1   
 18  25  27  1   
@<TRIPOS>SUBSTRUCTURE
  1 HOH   1 GROUP 4 B **** 0
  2 HOH   4 GROUP 4 B **** 0
  3 HOH   7 GROUP 4 B **** 0
  4 HOH  10 GROUP 4 B **** 0
  5 HOH  13 GROUP 4 B **** 0
  6 HOH  16 GROUP 4 B **** 0
  7 HOH  19 GROUP 4 B **** 0
  8 HOH  22 GROUP 4 B **** 0
  9 HOH  25 GROUP 4 B **** 0

# MOE 2012.10 (io_trps.svl 2012.10)
