@<TRIPOS>MOLECULE
4yc8.A
35 34 2 0 0 
SMALL
USER_CHARGES


@<TRIPOS>ATOM
  1 C1       0.5163    17.1877    32.2907 C.3   1 EDO   0.1200 
  2 O1       1.0382    15.9171    31.8963 O.3   1 EDO  -0.6800 
  3 HO1      1.9430    16.0525    31.5108 H     1 EDO   0.4000 
  4 C2       1.2429    18.3559    31.5558 C.3   1 EDO   0.1200 
  5 O2       1.2271    18.2401    30.1233 O.3   1 EDO  -0.6800 
  6 HO2      0.3863    17.7754    29.8710 H     1 EDO   0.4000 
  7 H11     -0.5639    17.2536    32.1722 H     1 EDO   0.0800 
  8 H12      0.7133    17.2348    33.3602 H     1 EDO   0.0800 
  9 H21      0.7466    19.3051    31.7522 H     1 EDO   0.0800 
 10 H22      2.2542    18.4316    31.9503 H     1 EDO   0.0800 
 11 O1      -0.5816     6.6624    33.7660 O.3   2 MES  -0.5600 
 12 C2       0.2917     6.3315    32.6870 C.3   2 MES   0.1200 
 13 C3      -0.4698     6.0642    31.4139 C.3   2 MES   0.3430 
 14 N4      -1.4565     4.9576    31.6339 N.4   2 MES  -0.9590 
 15 HN4     -0.9335     4.1241    31.8840 H     2 MES   0.4500 
 16 C5      -2.3398     5.2876    32.7939 C.3   2 MES   0.3430 
 17 C6      -1.4976     5.5911    34.0094 C.3   2 MES   0.1200 
 18 C7      -2.2529     4.6338    30.3982 C.3   2 MES   0.3430 
 19 C8      -1.3975     3.9557    29.3510 C.3   2 MES  -0.0548 
 20 S       -2.4178     3.2330    28.0820 S.o2  2 MES   1.3448 
 21 O1S     -3.3540     4.2668    27.6720 O.co2 2 MES  -0.8167 
 22 O2S     -3.0862     2.0989    28.6988 O.co2 2 MES  -0.8167 
 23 O3S     -1.5078     2.8402    27.0184 O.co2 2 MES  -0.8167 
 24 H21      0.9619     5.5123    32.9506 H     2 MES   0.0800 
 25 H22      0.9245     7.2151    32.5862 H     2 MES   0.0800 
 26 H31     -0.9795     6.9655    31.0739 H     2 MES   0.0800 
 27 H32      0.2208     5.8113    30.6137 H     2 MES   0.0800 
 28 H51     -3.0192     4.4614    32.9887 H     2 MES   0.0800 
 29 H52     -2.9867     6.1296    32.5530 H     2 MES   0.0800 
 30 H61     -2.1059     5.7847    34.8945 H     2 MES   0.0800 
 31 H62     -0.8596     4.7451    34.2684 H     2 MES   0.0800 
 32 H71     -3.0863     3.9860    30.6689 H     2 MES   0.0800 
 33 H72     -2.6924     5.5440    29.9954 H     2 MES   0.0800 
 34 H81     -0.6939     4.6330    28.8718 H     2 MES   0.0800 
 35 H82     -0.7533     3.1787    29.7585 H     2 MES   0.0800 
@<TRIPOS>BOND
  1   1   2  1   
  2   1   4  1   
  3   1   7  1   
  4   1   8  1   
  5   2   3  1   
  6   4   5  1   
  7   4   9  1   
  8   4  10  1   
  9   5   6  1   
 10  11  12  1   
 11  11  17  1   
 12  12  13  1   
 13  12  24  1   
 14  12  25  1   
 15  13  14  1   
 16  13  26  1   
 17  13  27  1   
 18  14  15  1   
 19  14  16  1   
 20  14  18  1   
 21  16  17  1   
 22  16  28  1   
 23  16  29  1   
 24  17  30  1   
 25  17  31  1   
 26  18  19  1   
 27  18  32  1   
 28  18  33  1   
 29  19  20  1   
 30  19  34  1   
 31  19  35  1   
 32  20  21  ar  
 33  20  22  ar  
 34  20  23  ar  
@<TRIPOS>SUBSTRUCTURE
  1 EDO   4 GROUP 4 A **** 0
  2 MES  18 GROUP 4 A **** 0

# MOE 2012.10 (io_trps.svl 2012.10)
