@<TRIPOS>MOLECULE
4yc8.A
61 65 1 0 0 
SMALL
USER_CHARGES


@<TRIPOS>ATOM
  1 O1       2.4546    18.1669    40.8645 O.2   1 <1>  -0.5700 
  2 C1       2.3012    19.2465    41.4343 C.2   1 <1>   0.7150 
  3 N1       3.1626    20.3020    41.3160 N.am  1 <1>  -0.5470 
  4 C2       4.2453    20.4310    40.4200 C.ar  1 <1>   0.1170 
  5 C13      5.1984    21.3925    40.7809 C.ar  1 <1>  -0.1500 
  6 C12      6.3579    21.5523    40.0568 C.ar  1 <1>  -0.1500 
  7 C5       6.6111    20.7209    38.9601 C.ar  1 <1>   0.0825 
  8 O2       7.8360    20.9113    38.3538 O.3   1 <1>  -0.1650 
  9 C6       7.8655    20.9591    36.9645 C.ar  1 <1>   0.0825 
 10 C11      7.0971    21.9779    36.3095 C.ar  1 <1>  -0.1500 
 11 C10      7.0988    21.9897    34.9185 C.ar  1 <1>  -0.1500 
 12 C9       7.8183    21.0406    34.1983 C.ar  1 <1>  -0.1500 
 13 C8       8.5644    20.0558    34.8524 C.ar  1 <1>  -0.1500 
 14 C7       8.6036    20.0081    36.2421 C.ar  1 <1>  -0.1500 
 15 C4       5.6858    19.7582    38.5758 C.ar  1 <1>  -0.1500 
 16 C3       4.5078    19.6102    39.3040 C.ar  1 <1>  -0.1500 
 17 C14      1.2167    19.3728    42.4219 C.2   1 <1>  -0.0450 
 18 C15      0.3961    20.4428    42.7474 C.2   1 <1>   0.0772 
 19 N2      -0.5865    20.1391    43.7039 N.2   1 <1>  -0.5653 
 20 C16     -0.4399    18.8293    44.0625 C.2   1 <1>   0.4621 
 21 S        0.8299    18.0095    43.2622 S.3   1 <1>  -0.0800 
 22 N3      -1.2208    18.2541    45.0948 N.pl3 1 <1>  -0.5840 
 23 C17     -1.1503    16.9244    45.5683 C.ar  1 <1>   0.4100 
 24 C27     -1.9705    16.5482    46.6910 C.ar  1 <1>  -0.1500 
 25 C20     -1.7671    15.2483    47.2315 C.ar  1 <1>   0.4100 
 26 N5      -0.8430    14.3611    46.6914 N.ar  1 <1>  -0.6200 
 27 C18     -0.1136    14.8004    45.5991 C.ar  1 <1>   0.4765 
 28 C19      0.9439    13.8513    45.0663 C.3   1 <1>  -0.0965 
 29 N4      -0.2349    16.0349    45.0077 N.ar  1 <1>  -0.6200 
 30 N6      -2.4487    14.7393    48.3869 N.pl3 1 <1>  -0.8382 
 31 C26     -2.2995    13.3541    48.9099 C.3   1 <1>   0.2091 
 32 C25     -3.6499    12.6676    48.7411 C.3   1 <1>   0.3430 
 33 N7      -4.6858    13.4146    49.5219 N.4   1 <1>  -0.9060 
 34 H72     -5.5832    12.9665    49.4036 H     1 <1>   0.4500 
 35 H71     -4.4349    13.4128    50.5002 H     1 <1>   0.4500 
 36 C22     -4.7661    14.8259    49.0317 C.3   1 <1>   0.3430 
 37 C21     -3.4112    15.4996    49.2112 C.3   1 <1>   0.2091 
 38 H2       3.0191    21.0820    41.9482 H     1 <1>   0.3700 
 39 H11      5.0816    21.9975    41.6786 H     1 <1>   0.1500 
 40 H10      7.0568    22.3435    40.3208 H     1 <1>   0.1500 
 41 H9       6.5315    22.7143    36.8801 H     1 <1>   0.1500 
 42 H8       6.5344    22.7418    34.3721 H     1 <1>   0.1500 
 43 H7       7.7861    21.0722    33.1116 H     1 <1>   0.1500 
 44 H6       9.1086    19.3177    34.2677 H     1 <1>   0.1500 
 45 H5       9.1977    19.2568    36.7594 H     1 <1>   0.1500 
 46 H4       5.8571    19.1232    37.7089 H     1 <1>   0.1500 
 47 H3       3.8281    18.8372    38.9520 H     1 <1>   0.1500 
 48 H12      0.4424    21.4514    42.3413 H     1 <1>   0.1500 
 49 H13     -1.8818    18.8835    45.5379 H     1 <1>   0.4000 
 50 H30     -2.7019    17.2497    47.0855 H     1 <1>   0.1500 
 51 H14      1.4922    13.3419    45.8563 H     1 <1>   0.0800 
 52 H15      0.5040    13.0653    44.4552 H     1 <1>   0.0800 
 53 H16      1.6683    14.3784    44.4466 H     1 <1>   0.0800 
 54 H28     -1.9676    13.3603    49.9460 H     1 <1>   0.0800 
 55 H29     -1.5417    12.7605    48.4024 H     1 <1>   0.0800 
 56 H27     -3.5875    11.6217    49.0399 H     1 <1>   0.0800 
 57 H26     -3.9433    12.6329    47.6935 H     1 <1>   0.0800 
 58 H19     -5.5767    15.3741    49.5120 H     1 <1>   0.0800 
 59 H20     -5.0481    14.8275    47.9807 H     1 <1>   0.0800 
 60 H17     -3.1434    15.5014    50.2666 H     1 <1>   0.0800 
 61 H18     -3.4394    16.5586    48.9646 H     1 <1>   0.0800 
@<TRIPOS>BOND
  1   1   2  2   
  2   2   3  am  
  3   2  17  1   
  4   3   4  1   
  5   3  38  1   
  6   4   5  ar  
  7   4  16  ar  
  8   5   6  ar  
  9   5  39  1   
 10   6   7  ar  
 11   6  40  1   
 12   7   8  1   
 13   7  15  ar  
 14   8   9  1   
 15   9  10  ar  
 16   9  14  ar  
 17  10  11  ar  
 18  10  41  1   
 19  11  12  ar  
 20  11  42  1   
 21  12  13  ar  
 22  12  43  1   
 23  13  14  ar  
 24  13  44  1   
 25  14  45  1   
 26  15  16  ar  
 27  15  46  1   
 28  16  47  1   
 29  17  18  2   
 30  17  21  1   
 31  18  19  1   
 32  18  48  1   
 33  19  20  2   
 34  20  21  1   
 35  20  22  1   
 36  22  23  1   
 37  22  49  1   
 38  23  24  ar  
 39  23  29  ar  
 40  24  25  ar  
 41  24  50  1   
 42  25  26  ar  
 43  25  30  1   
 44  26  27  ar  
 45  27  28  1   
 46  27  29  ar  
 47  28  51  1   
 48  28  52  1   
 49  28  53  1   
 50  30  31  1   
 51  30  37  1   
 52  31  32  1   
 53  31  54  1   
 54  31  55  1   
 55  32  33  1   
 56  32  56  1   
 57  32  57  1   
 58  33  34  1   
 59  33  35  1   
 60  33  36  1   
 61  36  37  1   
 62  36  58  1   
 63  36  59  1   
 64  37  60  1   
 65  37  61  1   
@<TRIPOS>SUBSTRUCTURE
  1 ****  21 GROUP 4 A **** 0

# MOE 2012.10 (io_trps.svl 2012.10)
