@<TRIPOS>MOLECULE
4yc8.A
18 12 6 0 0 
SMALL
USER_CHARGES


@<TRIPOS>ATOM
  1 O      -15.4969    -2.5796    26.9633 O.3   1 HOH   0.0000 
  2 H1     -14.5369    -2.5796    26.9633 H     1 HOH   0.0000 
  3 H2     -15.7872    -1.9325    27.6104 H     1 HOH   0.0000 
  4 O      -15.3597     3.9511    39.6221 O.3   2 HOH   0.0000 
  5 H1     -14.3997     3.9511    39.6221 H     2 HOH   0.0000 
  6 H2     -15.6500     4.5981    40.2691 H     2 HOH   0.0000 
  7 O       -5.6813    20.0482    12.3700 O.3   3 HOH   0.0000 
  8 H1      -4.7213    20.0482    12.3700 H     3 HOH   0.0000 
  9 H2      -5.9716    20.6953    13.0170 H     3 HOH   0.0000 
 10 O      -25.4696    11.1094    42.2339 O.3   4 HOH   0.0000 
 11 H1     -24.5096    11.1094    42.2339 H     4 HOH   0.0000 
 12 H2     -25.7599    11.7564    42.8809 H     4 HOH   0.0000 
 13 O       -6.4958     9.5511    34.0435 O.3   5 HOH  -0.8340 
 14 H1      -7.2968     9.6405    33.5270 H     5 HOH   0.4170 
 15 H2      -6.7795     9.1307    34.8553 H     5 HOH   0.4170 
 16 O      -18.4271     8.8025    15.5551 O.3   6 HOH   0.0000 
 17 H1     -17.4671     8.8025    15.5551 H     6 HOH   0.0000 
 18 H2     -18.7173     9.4495    16.2022 H     6 HOH   0.0000 
@<TRIPOS>BOND
  1   1   2  1   
  2   1   3  1   
  3   4   5  1   
  4   4   6  1   
  5   7   8  1   
  6   7   9  1   
  7  10  11  1   
  8  10  12  1   
  9  13  14  1   
 10  13  15  1   
 11  16  17  1   
 12  16  18  1   
@<TRIPOS>SUBSTRUCTURE
  1 HOH   1 GROUP 4 A **** 0
  2 HOH   4 GROUP 4 A **** 0
  3 HOH   7 GROUP 4 A **** 0
  4 HOH  10 GROUP 4 A **** 0
  5 HOH  13 GROUP 4 A **** 0
  6 HOH  16 GROUP 4 A **** 0

# MOE 2012.10 (io_trps.svl 2012.10)
