@<TRIPOS>MOLECULE
3qrj.A
69 73 1 0 0 
SMALL
USER_CHARGES


@<TRIPOS>ATOM
  1 C1       3.2270    23.8498    30.3716 C.ar  1 Q919  -0.0230 
  2 C2       3.8448    24.7120    29.4381 C.ar  1 Q919  -0.1500 
  3 H2       3.3053    25.5883    29.1103 H     1 Q919   0.1500 
  4 C3       5.1297    24.4809    28.9168 C.ar  1 Q919  -0.1500 
  5 H3       5.5546    25.1704    28.2023 H     1 Q919   0.1500 
  6 C4       5.8520    23.3672    29.3201 C.ar  1 Q919   0.3100 
  7 C5       5.2761    22.4868    30.2405 C.ar  1 Q919   0.0000 
  8 C6       4.0045    22.7370    30.7353 C.ar  1 Q919  -0.1500 
  9 H6       3.5872    22.0348    31.4419 H     1 Q919   0.1500 
 10 C9       7.7790    22.0296    29.2347 C.ar  1 Q919   0.1600 
 11 H9       8.7730    21.8618    28.8472 H     1 Q919   0.1500 
 12 N10      7.0811    23.1111    28.8253 N.ar  1 Q919  -0.6200 
 13 C13      5.9649    21.3540    30.6688 C.ar  1 Q919  -0.1500 
 14 H13      5.5248    20.6732    31.3824 H     1 Q919   0.1500 
 15 C14      7.2376    21.1241    30.1504 C.ar  1 Q919  -0.1500 
 16 H14      7.8005    20.2538    30.4538 H     1 Q919   0.1500 
 17 C22      0.0303    22.1594    42.6207 C.ar  1 Q919   0.1600 
 18 H22     -0.6175    23.0123    42.7597 H     1 Q919   0.1500 
 19 N23     -0.1419    21.0559    43.3871 N.ar  1 Q919  -0.6200 
 20 C24      0.6468    19.9575    43.1782 C.ar  1 Q919   0.3962 
 21 C25      1.6587    19.9765    42.2115 C.ar  1 Q919  -0.1500 
 22 H25      2.2920    19.1120    42.0773 H     1 Q919   0.1500 
 23 C26      1.8510    21.1092    41.4210 C.ar  1 Q919   0.0825 
 24 C27      1.0338    22.2066    41.6550 C.ar  1 Q919  -0.1500 
 25 H27      1.1778    23.1098    41.0806 H     1 Q919   0.1500 
 26 C34      1.6677    22.2683    37.2292 C.ar  1 Q919  -0.1500 
 27 H34      0.7442    22.3349    36.6732 H     1 Q919   0.1500 
 28 C35      1.6592    21.7167    38.4981 C.ar  1 Q919  -0.1500 
 29 H35      0.7386    21.3362    38.9154 H     1 Q919   0.1500 
 30 C36      2.8380    21.6522    39.2375 C.ar  1 Q919   0.0825 
 31 C37      4.0008    22.1493    38.6924 C.ar  1 Q919  -0.1500 
 32 H37      4.9163    22.1210    39.2646 H     1 Q919   0.1500 
 33 C38      4.0042    22.6865    37.4127 C.ar  1 Q919   0.1900 
 34 C39      2.8543    22.7419    36.6531 C.ar  1 Q919   0.1170 
 35 C46     -0.1078    24.5124    30.9272 C.2   1 Q919   0.1078 
 36 C47      0.2364    24.3308    32.2325 C.2   1 Q919  -0.1500 
 37 H47     -0.3933    24.4405    33.1031 H     1 Q919   0.1500 
 38 C48      1.5889    23.9702    32.1936 C.2   1 Q919  -0.0876 
 39 N49      1.9872    24.0743    30.8972 N.pl3 1 Q919   0.5926 
 40 N50      0.9193    24.4337    30.0397 N.2   1 Q919  -0.7068 
 41 N56      2.4552    23.6788    33.2067 N.am  1 Q919  -0.4940 
 42 H56      3.4453    23.7860    33.0383 H     1 Q919   0.3700 
 43 C58      2.0524    23.2536    34.4243 C.2   1 Q919   0.6900 
 44 N60      2.9869    23.2755    35.3980 N.am  1 Q919  -0.5470 
 45 H60      3.8644    23.7265    35.1817 H     1 Q919   0.3700 
 46 O63      0.8867    22.9084    34.6186 O.2   1 Q919  -0.5700 
 47 O65      2.8822    21.1206    40.4919 O.3   1 Q919  -0.1650 
 48 F68      5.1430    23.1604    36.8817 F     1 Q919  -0.1900 
 49 C70      0.4375    18.7136    43.9879 C.2   1 Q919   0.5438 
 50 O72      0.8483    17.6375    43.5311 O.2   1 Q919  -0.5700 
 51 N74     -0.1348    18.8633    45.1796 N.am  1 Q919  -0.7301 
 52 H74     -0.6039    19.7360    45.3756 H     1 Q919   0.3700 
 53 C76     -0.1240    17.8430    46.2168 C.3   1 Q919   0.0601 
 54 H761     0.4158    16.9664    45.8586 H     1 Q919   0.0800 
 55 H762    -1.1485    17.5635    46.4623 H     1 Q919   0.0800 
 56 H763     0.3689    18.2346    47.1067 H     1 Q919   0.0800 
 57 C79     -1.5157    24.9301    30.5312 C.3   1 Q919   0.1810 
 58 C81     -1.9996    26.1275    31.3238 C.3   1 Q919  -0.2400 
 59 H811    -2.0953    25.8532    32.3743 H     1 Q919   0.0800 
 60 H812    -2.9690    26.4481    30.9422 H     1 Q919   0.0800 
 61 H813    -1.2826    26.9425    31.2249 H     1 Q919   0.0800 
 62 C83     -2.5053    23.8106    30.8334 C.3   1 Q919  -0.2400 
 63 H831    -2.4332    23.5362    31.8858 H     1 Q919   0.0800 
 64 H832    -2.2731    22.9436    30.2151 H     1 Q919   0.0800 
 65 H833    -3.5174    24.1517    30.6155 H     1 Q919   0.0800 
 66 C85     -1.4395    25.4744    29.1254 C.3   1 Q919  -0.2400 
 67 H851    -0.6882    26.2629    29.0813 H     1 Q919   0.0800 
 68 H852    -2.4099    25.8808    28.8400 H     1 Q919   0.0800 
 69 H853    -1.1656    24.6727    28.4396 H     1 Q919   0.0800 
@<TRIPOS>BOND
  1   1   2  ar  
  2   1   8  ar  
  3   1  39  1   
  4   2   3  1   
  5   2   4  ar  
  6   4   5  1   
  7   4   6  ar  
  8   6   7  ar  
  9   6  12  ar  
 10   7   8  ar  
 11   7  13  ar  
 12   8   9  1   
 13  10  11  1   
 14  10  12  ar  
 15  10  15  ar  
 16  13  14  1   
 17  13  15  ar  
 18  15  16  1   
 19  17  18  1   
 20  17  19  ar  
 21  17  24  ar  
 22  19  20  ar  
 23  20  21  ar  
 24  20  49  1   
 25  21  22  1   
 26  21  23  ar  
 27  23  24  ar  
 28  23  47  1   
 29  24  25  1   
 30  26  27  1   
 31  26  28  ar  
 32  26  34  ar  
 33  28  29  1   
 34  28  30  ar  
 35  30  31  ar  
 36  30  47  1   
 37  31  32  1   
 38  31  33  ar  
 39  33  34  ar  
 40  33  48  1   
 41  34  44  1   
 42  35  36  1   
 43  35  40  2   
 44  35  57  1   
 45  36  37  1   
 46  36  38  2   
 47  38  39  1   
 48  38  41  1   
 49  39  40  1   
 50  41  42  1   
 51  41  43  am  
 52  43  44  am  
 53  43  46  2   
 54  44  45  1   
 55  49  50  2   
 56  49  51  am  
 57  51  52  1   
 58  51  53  1   
 59  53  54  1   
 60  53  55  1   
 61  53  56  1   
 62  57  58  1   
 63  57  62  1   
 64  57  66  1   
 65  58  59  1   
 66  58  60  1   
 67  58  61  1   
 68  62  63  1   
 69  62  64  1   
 70  62  65  1   
 71  66  67  1   
 72  66  68  1   
 73  66  69  1   
@<TRIPOS>SUBSTRUCTURE
  1 Q919  44 GROUP 4 A **** 0

# MOE 2012.10 (io_trps.svl 2012.10)
