@<TRIPOS>MOLECULE
1opl.A
45 48 1 0 0 
SMALL
USER_CHARGES


@<TRIPOS>ATOM
  1 O1      -1.2427    14.7471    48.7149 O.3   1 P16  -0.6800 
  2 H1      -1.6332    14.4809    49.5505 H     1 P16   0.4000 
  3 C2      -2.2307    14.6328    47.7306 C.3   1 P16   0.2635 
  4 H21     -3.0660    15.2792    48.0001 H     1 P16   0.0800 
  5 H22     -2.5690    13.5972    47.6965 H     1 P16   0.0800 
  6 C3      -1.7389    15.0278    46.3471 C.ar  1 P16  -0.1435 
  7 C4      -1.3910    14.0169    45.3836 C.ar  1 P16  -0.1500 
  8 H4      -1.4839    12.9726    45.6426 H     1 P16   0.1500 
  9 C5      -0.9295    14.3839    44.1031 C.ar  1 P16  -0.1500 
 10 H5      -0.6730    13.6173    43.3869 H     1 P16   0.1500 
 11 C6      -0.7980    15.7601    43.7440 C.ar  1 P16  -0.1500 
 12 H6      -0.4415    16.0341    42.7620 H     1 P16   0.1500 
 13 C7      -1.1426    16.7756    44.6965 C.ar  1 P16   0.1000 
 14 N9      -1.0258    18.1696    44.4619 N.pl3 1 P16  -0.6000 
 15 H9      -1.5694    18.7685    45.0668 H     1 P16   0.4000 
 16 C10     -0.2654    18.8016    43.5145 C.ar  1 P16   0.7200 
 17 N11     -0.3081    20.1844    43.5612 N.ar  1 P16  -0.6200 
 18 C12      0.4461    20.8501    42.6699 C.ar  1 P16   0.1600 
 19 H12      0.4201    21.9298    42.6778 H     1 P16   0.1500 
 20 C13      1.2778    20.1981    41.7155 C.ar  1 P16   0.0284 
 21 C16      2.0910    20.8953    40.7629 C.2   1 P16  -0.1784 
 22 H16      2.0936    21.9752    40.7514 H     1 P16   0.1500 
 23 C17      2.8615    20.2089    39.8706 C.2   1 P16  -0.0140 
 24 C18      2.8470    18.6992    39.8394 C.2   1 P16   0.6156 
 25 O21      3.5007    17.9942    39.0709 O.2   1 P16  -0.5700 
 26 N19      2.0216    18.0374    40.8158 N.am  1 P16  -0.4771 
 27 C14      1.2355    18.7527    41.7214 C.ar  1 P16   0.4270 
 28 N15      0.4860    18.0850    42.6345 N.ar  1 P16  -0.6200 
 29 C20      1.9592    16.5561    40.8466 C.3   1 P16   0.0601 
 30 H201     2.6245    16.1485    40.0854 H     1 P16   0.0800 
 31 H202     0.9378    16.2312    40.6481 H     1 P16   0.0800 
 32 H203     2.2694    16.1997    41.8289 H     1 P16   0.0800 
 33 C22      3.7291    20.8889    38.8861 C.ar  1 P16   0.0284 
 34 C27      3.3160    21.1055    37.5419 C.ar  1 P16   0.1770 
 35 CL28     1.7182    20.6135    37.0287 Cl    1 P16  -0.1770 
 36 C26      4.1841    21.7509    36.5998 C.ar  1 P16  -0.1500 
 37 H26      3.8486    21.9259    35.5883 H     1 P16   0.1500 
 38 C25      5.4891    22.1610    36.9987 C.ar  1 P16  -0.1500 
 39 H25      6.1479    22.6256    36.2801 H     1 P16   0.1500 
 40 C24      5.9314    21.9626    38.3392 C.ar  1 P16  -0.1500 
 41 H24      6.9106    22.2936    38.6521 H     1 P16   0.1500 
 42 C23      5.0500    21.3159    39.2600 C.ar  1 P16   0.1770 
 43 CL29     5.6007    21.0830    40.8942 Cl    1 P16  -0.1770 
 44 C8      -1.6124    16.3938    45.9971 C.ar  1 P16  -0.1500 
 45 H8      -1.8722    17.1562    46.7166 H     1 P16   0.1500 
@<TRIPOS>BOND
  1   1   2  1   
  2   1   3  1   
  3   3   4  1   
  4   3   5  1   
  5   3   6  1   
  6   6   7  ar  
  7   6  44  ar  
  8   7   8  1   
  9   7   9  ar  
 10   9  10  1   
 11   9  11  ar  
 12  11  12  1   
 13  11  13  ar  
 14  13  14  1   
 15  13  44  ar  
 16  14  15  1   
 17  14  16  1   
 18  16  17  ar  
 19  16  28  ar  
 20  17  18  ar  
 21  18  19  1   
 22  18  20  ar  
 23  20  21  1   
 24  20  27  ar  
 25  21  22  1   
 26  21  23  2   
 27  23  24  1   
 28  23  33  1   
 29  24  25  2   
 30  24  26  am  
 31  26  27  1   
 32  26  29  1   
 33  27  28  ar  
 34  29  30  1   
 35  29  31  1   
 36  29  32  1   
 37  33  34  ar  
 38  33  42  ar  
 39  34  35  1   
 40  34  36  ar  
 41  36  37  1   
 42  36  38  ar  
 43  38  39  1   
 44  38  40  ar  
 45  40  41  1   
 46  40  42  ar  
 47  42  43  1   
 48  44  45  1   
@<TRIPOS>SUBSTRUCTURE
  1 P16  27 GROUP 4 A **** 0

# MOE 2012.10 (io_trps.svl 2012.10)
