@<TRIPOS>MOLECULE
2e2b.A
75 79 1 0 0 
SMALL
USER_CHARGES


@<TRIPOS>ATOM
  1 C1       1.2303    23.9151    32.6890 C.ar  1 Q406   0.0862 
  2 C2       2.1052    24.2804    31.6173 C.ar  1 Q406  -0.1500 
  3 H2       3.1745    24.2524    31.7661 H     1 Q406   0.1500 
  4 C3       1.5832    24.6772    30.3672 C.ar  1 Q406  -0.1500 
  5 H3       2.2608    24.9548    29.5734 H     1 Q406   0.1500 
  6 C4       0.1448    24.7189    30.1285 C.ar  1 Q406  -0.1435 
  7 C5      -0.7681    24.3402    31.2325 C.ar  1 Q406  -0.1435 
  8 C6      -0.1839    23.9569    32.4653 C.ar  1 Q406  -0.1500 
  9 H6      -0.8391    23.6819    33.2786 H     1 Q406   0.1500 
 10 C7      -2.3379    24.3228    31.1490 C.3   1 Q406   1.1635 
 11 F8      -2.7302    23.3869    30.2415 F     1 Q406  -0.3400 
 12 F9      -2.8147    25.5344    30.7653 F     1 Q406  -0.3400 
 13 F10     -2.9263    23.9497    32.3309 F     1 Q406  -0.3400 
 14 C11     -0.2977    25.1680    28.7015 C.3   1 Q406   0.4865 
 15 H111    -0.4188    26.2508    28.7332 H     1 Q406   0.0800 
 16 H112    -1.2626    24.7001    28.5066 H     1 Q406   0.0800 
 17 N12      0.5745    24.8639    27.5345 N.4   1 Q406  -0.9590 
 18 H12      1.4566    25.2467    27.8435 H     1 Q406   0.4500 
 19 C13      0.2143    25.5304    26.2675 C.3   1 Q406   0.3430 
 20 H131     0.9687    26.2682    25.9942 H     1 Q406   0.0800 
 21 H132    -0.7567    26.0182    26.3532 H     1 Q406   0.0800 
 22 C14      0.1618    24.4031    25.2304 C.3   1 Q406  -0.1600 
 23 H141     0.4653    24.7504    24.2428 H     1 Q406   0.0800 
 24 H142    -0.8314    23.9582    25.1696 H     1 Q406   0.0800 
 25 C15      1.1935    23.4181    25.8319 C.3   1 Q406   0.4230 
 26 H15      2.2301    23.7212    25.6843 H     1 Q406   0.0800 
 27 C16      0.7024    23.4082    27.2573 C.3   1 Q406   0.3430 
 28 H161    -0.2579    22.9000    27.3444 H     1 Q406   0.0800 
 29 H162     1.4245    22.9373    27.9244 H     1 Q406   0.0800 
 30 N17      1.2739    22.0334    25.1842 N.4   1 Q406  -0.9590 
 31 H17      0.3174    21.7130    25.1357 H     1 Q406   0.4500 
 32 C18      1.7264    21.9957    23.7776 C.3   1 Q406   0.2630 
 33 H181     1.1098    22.6666    23.1795 H     1 Q406   0.0800 
 34 H182     1.6355    20.9796    23.3938 H     1 Q406   0.0800 
 35 H183     2.7677    22.3131    23.7223 H     1 Q406   0.0800 
 36 C19      2.1070    21.1145    26.0432 C.3   1 Q406   0.2630 
 37 H191     1.7538    21.1607    27.0733 H     1 Q406   0.0800 
 38 H192     3.1507    21.4263    26.0026 H     1 Q406   0.0800 
 39 H193     2.0185    20.0927    25.6742 H     1 Q406   0.0800 
 40 N20      0.0613    18.1307    44.2424 N.ar  1 Q406  -0.6200 
 41 C21     -0.5535    19.2301    44.7150 C.ar  1 Q406   0.4700 
 42 H21     -1.1791    19.1015    45.5860 H     1 Q406   0.1500 
 43 N22     -0.4663    20.4688    44.2118 N.ar  1 Q406  -0.6200 
 44 C23      0.3178    20.6425    43.1143 C.ar  1 Q406   0.1600 
 45 H23      0.3971    21.6347    42.6951 H     1 Q406   0.1500 
 46 C24      1.0692    19.5442    42.4626 C.ar  1 Q406   0.0000 
 47 C25      0.8517    18.2667    43.1543 C.ar  1 Q406   0.1600 
 48 H25      1.3505    17.3881    42.7726 H     1 Q406   0.1500 
 49 C26      1.8688    19.7522    41.3319 C.ar  1 Q406   0.3100 
 50 N27      1.9569    21.0215    40.8074 N.ar  1 Q406  -0.6200 
 51 C28      2.7046    21.2579    39.7408 C.ar  1 Q406   0.7200 
 52 N29      3.4308    20.3521    39.1001 N.ar  1 Q406  -0.6200 
 53 C30      3.4076    19.0503    39.5484 C.ar  1 Q406   0.1600 
 54 H30      3.9872    18.3031    39.0268 H     1 Q406   0.1500 
 55 C31      2.6400    18.6663    40.6805 C.ar  1 Q406  -0.1500 
 56 H31      2.6195    17.6492    41.0432 H     1 Q406   0.1500 
 57 N32      2.7140    22.5774    39.3076 N.pl3 1 Q406  -0.6000 
 58 H32      2.1409    23.2196    39.8360 H     1 Q406   0.4000 
 59 C33      2.7664    23.1821    36.9886 C.ar  1 Q406  -0.1500 
 60 H33      1.7564    22.8124    36.8900 H     1 Q406   0.1500 
 61 C34      3.4515    23.7344    35.8368 C.ar  1 Q406   0.1170 
 62 C35      4.7744    24.2130    35.9826 C.ar  1 Q406  -0.1500 
 63 H35      5.2939    24.6260    35.1306 H     1 Q406   0.1500 
 64 C36      5.4290    24.1520    37.2582 C.ar  1 Q406  -0.1500 
 65 H36      6.4392    24.5190    37.3643 H     1 Q406   0.1500 
 66 C37      4.7448    23.6056    38.3894 C.ar  1 Q406  -0.1435 
 67 C38      3.4161    23.1276    38.2336 C.ar  1 Q406   0.1000 
 68 C39      5.5312    23.5837    39.6987 C.3   1 Q406  -0.0965 
 69 H391     6.5210    24.0098    39.5352 H     1 Q406   0.0800 
 70 H392     5.6311    22.5552    40.0455 H     1 Q406   0.0800 
 71 H393     5.0026    24.1706    40.4499 H     1 Q406   0.0800 
 72 N40      2.8601    23.8243    34.5278 N.am  1 Q406  -0.5470 
 73 H40      3.4699    24.2352    33.8354 H     1 Q406   0.3700 
 74 C41      1.6668    23.4728    34.0480 C.2   1 Q406   0.5438 
 75 O42      0.9093    22.7583    34.7052 O.2   1 Q406  -0.5700 
@<TRIPOS>BOND
  1   1   2  ar  
  2   1   8  ar  
  3   1  74  1   
  4   2   3  1   
  5   2   4  ar  
  6   4   5  1   
  7   4   6  ar  
  8   6   7  ar  
  9   6  14  1   
 10   7   8  ar  
 11   7  10  1   
 12   8   9  1   
 13  10  11  1   
 14  10  12  1   
 15  10  13  1   
 16  14  15  1   
 17  14  16  1   
 18  14  17  1   
 19  17  18  1   
 20  17  19  1   
 21  17  27  1   
 22  19  20  1   
 23  19  21  1   
 24  19  22  1   
 25  22  23  1   
 26  22  24  1   
 27  22  25  1   
 28  25  26  1   
 29  25  27  1   
 30  25  30  1   
 31  27  28  1   
 32  27  29  1   
 33  30  31  1   
 34  30  32  1   
 35  30  36  1   
 36  32  33  1   
 37  32  34  1   
 38  32  35  1   
 39  36  37  1   
 40  36  38  1   
 41  36  39  1   
 42  40  41  ar  
 43  40  47  ar  
 44  41  42  1   
 45  41  43  ar  
 46  43  44  ar  
 47  44  45  1   
 48  44  46  ar  
 49  46  47  ar  
 50  46  49  1   
 51  47  48  1   
 52  49  50  ar  
 53  49  55  ar  
 54  50  51  ar  
 55  51  52  ar  
 56  51  57  1   
 57  52  53  ar  
 58  53  54  1   
 59  53  55  ar  
 60  55  56  1   
 61  57  58  1   
 62  57  67  1   
 63  59  60  1   
 64  59  61  ar  
 65  59  67  ar  
 66  61  62  ar  
 67  61  72  1   
 68  62  63  1   
 69  62  64  ar  
 70  64  65  1   
 71  64  66  ar  
 72  66  67  ar  
 73  66  68  1   
 74  68  69  1   
 75  68  70  1   
 76  68  71  1   
 77  72  73  1   
 78  72  74  am  
 79  74  75  2   
@<TRIPOS>SUBSTRUCTURE
  1 Q406  75 GROUP 4 A **** 0

# MOE 2012.10 (io_trps.svl 2012.10)
