@<TRIPOS>MOLECULE
2e2b.A
264 176 88 0 0 
SMALL
USER_CHARGES


@<TRIPOS>ATOM
  1 O       -8.3946     7.1227    22.5111 O.3    1 HOH   0.0000 
  2 H1      -7.4346     7.1227    22.5111 H      1 HOH   0.0000 
  3 H2      -8.6849     7.7697    23.1581 H      1 HOH   0.0000 
  4 O      -11.8666     4.5133    46.6082 O.3    2 HOH   0.0000 
  5 H1     -10.9066     4.5133    46.6082 H      2 HOH   0.0000 
  6 H2     -12.1569     5.1604    47.2552 H      2 HOH   0.0000 
  7 O      -13.1652    11.2811    49.0513 O.3    3 HOH   0.0000 
  8 H1     -12.2052    11.2811    49.0513 H      3 HOH   0.0000 
  9 H2     -13.4554    11.9281    49.6984 H      3 HOH   0.0000 
 10 O       -5.0684    30.0754    36.2084 O.3    4 HOH   0.0000 
 11 H1      -4.1084    30.0754    36.2084 H      4 HOH   0.0000 
 12 H2      -5.3587    30.7224    36.8554 H      4 HOH   0.0000 
 13 O       -2.5808     7.8968    33.2766 O.3    5 HOH   0.0000 
 14 H1      -1.6208     7.8968    33.2766 H      5 HOH   0.0000 
 15 H2      -2.8711     8.5439    33.9237 H      5 HOH   0.0000 
 16 O       -4.7469     9.7681    33.5056 O.3    6 HOH   0.0000 
 17 H1      -3.7869     9.7681    33.5056 H      6 HOH   0.0000 
 18 H2      -5.0371    10.4152    34.1526 H      6 HOH   0.0000 
 19 O      -17.9056     7.4417    19.0456 O.3    7 HOH   0.0000 
 20 H1     -16.9456     7.4417    19.0456 H      7 HOH   0.0000 
 21 H2     -18.1959     8.0887    19.6926 H      7 HOH   0.0000 
 22 O        0.9698    18.4529    26.9837 O.3    8 HOH  -0.8340 
 23 H1       0.9781    19.0498    27.7319 H      8 HOH   0.4170 
 24 H2       0.0470    18.3891    26.7378 H      8 HOH   0.4170 
 25 O      -11.0013     2.7379    41.0413 O.3    9 HOH   0.0000 
 26 H1     -10.0413     2.7379    41.0413 H      9 HOH   0.0000 
 27 H2     -11.2915     3.3850    41.6883 H      9 HOH   0.0000 
 28 O        5.6272    42.4896    33.7519 O.3   10 HOH   0.0000 
 29 H1       6.5872    42.4896    33.7519 H     10 HOH   0.0000 
 30 H2       5.3369    43.1367    34.3990 H     10 HOH   0.0000 
 31 O       12.8658    40.3299    42.3032 O.3   11 HOH   0.0000 
 32 H1      13.8258    40.3299    42.3032 H     11 HOH   0.0000 
 33 H2      12.5756    40.9770    42.9502 H     11 HOH   0.0000 
 34 O       -4.9280    16.2382    24.9504 O.3   12 HOH   0.0000 
 35 H1      -3.9680    16.2382    24.9504 H     12 HOH   0.0000 
 36 H2      -5.2183    16.8852    25.5974 H     12 HOH   0.0000 
 37 O        5.0111    20.5141    36.7182 O.3   13 HOH  -0.8340 
 38 H1       4.3812    20.6712    37.4216 H     13 HOH   0.4170 
 39 H2       4.7008    21.0558    35.9926 H     13 HOH   0.4170 
 40 O       -1.9114     4.8808    26.5034 O.3   14 HOH   0.0000 
 41 H1      -0.9514     4.8808    26.5034 H     14 HOH   0.0000 
 42 H2      -2.2017     5.5278    27.1504 H     14 HOH   0.0000 
 43 O       13.1443    36.3657    40.0378 O.3   15 HOH   0.0000 
 44 H1      14.1043    36.3657    40.0378 H     15 HOH   0.0000 
 45 H2      12.8540    37.0128    40.6848 H     15 HOH   0.0000 
 46 O      -16.5713    11.4671    12.2964 O.3   16 HOH   0.0000 
 47 H1     -15.6113    11.4671    12.2964 H     16 HOH   0.0000 
 48 H2     -16.8616    12.1141    12.9434 H     16 HOH   0.0000 
 49 O       -4.3857    12.6716    44.1330 O.3   17 HOH   0.0000 
 50 H1      -3.4257    12.6716    44.1330 H     17 HOH   0.0000 
 51 H2      -4.6760    13.3186    44.7800 H     17 HOH   0.0000 
 52 O      -10.1546     2.1435    43.4582 O.3   18 HOH   0.0000 
 53 H1      -9.1946     2.1435    43.4582 H     18 HOH   0.0000 
 54 H2     -10.4448     2.7905    44.1053 H     18 HOH   0.0000 
 55 O       -3.4929    12.9566    27.0146 O.3   19 HOH   0.0000 
 56 H1      -2.5329    12.9566    27.0146 H     19 HOH   0.0000 
 57 H2      -3.7832    13.6037    27.6617 H     19 HOH   0.0000 
 58 O        1.6770    38.0178    32.7011 O.3   20 HOH   0.0000 
 59 H1       2.6370    38.0178    32.7011 H     20 HOH   0.0000 
 60 H2       1.3867    38.6648    33.3482 H     20 HOH   0.0000 
 61 O        9.2610    41.0124    39.6950 O.3   21 HOH   0.0000 
 62 H1      10.2210    41.0124    39.6950 H     21 HOH   0.0000 
 63 H2       8.9707    41.6594    40.3421 H     21 HOH   0.0000 
 64 O      -12.8161     4.6871    43.9989 O.3   22 HOH   0.0000 
 65 H1     -11.8561     4.6871    43.9989 H     22 HOH   0.0000 
 66 H2     -13.1064     5.3342    44.6459 H     22 HOH   0.0000 
 67 O       -6.1427     6.2992    21.1013 O.3   23 HOH   0.0000 
 68 H1      -5.1827     6.2992    21.1013 H     23 HOH   0.0000 
 69 H2      -6.4330     6.9462    21.7484 H     23 HOH   0.0000 
 70 O      -16.8931     8.0870    13.9276 O.3   24 HOH   0.0000 
 71 H1     -15.9331     8.0870    13.9276 H     24 HOH   0.0000 
 72 H2     -17.1834     8.7341    14.5747 H     24 HOH   0.0000 
 73 O      -12.5626    -1.4376    25.6774 O.3   25 HOH   0.0000 
 74 H1     -11.6026    -1.4376    25.6774 H     25 HOH   0.0000 
 75 H2     -12.8529    -0.7905    26.3245 H     25 HOH   0.0000 
 76 O       -0.8082    33.6105    34.7466 O.3   26 HOH   0.0000 
 77 H1       0.1518    33.6105    34.7466 H     26 HOH   0.0000 
 78 H2      -1.0985    34.2576    35.3936 H     26 HOH   0.0000 
 79 O      -15.1059    -0.6603    27.1799 O.3   27 HOH   0.0000 
 80 H1     -14.1459    -0.6603    27.1799 H     27 HOH   0.0000 
 81 H2     -15.3962    -0.0132    27.8270 H     27 HOH   0.0000 
 82 O       -3.7310    14.9481    22.6477 O.3   28 HOH   0.0000 
 83 H1      -2.7710    14.9481    22.6477 H     28 HOH   0.0000 
 84 H2      -4.0213    15.5951    23.2948 H     28 HOH   0.0000 
 85 O      -14.0712     5.4275    13.5181 O.3   29 HOH   0.0000 
 86 H1     -13.1112     5.4275    13.5181 H     29 HOH   0.0000 
 87 H2     -14.3615     6.0746    14.1651 H     29 HOH   0.0000 
 88 O        4.9510    21.1810    33.7774 O.3   30 HOH  -0.8340 
 89 H1       4.9865    22.0117    33.3031 H     30 HOH   0.4170 
 90 H2       4.0878    20.8230    33.5703 H     30 HOH   0.4170 
 91 O        6.1838    17.8792    36.3473 O.3   31 HOH  -0.8340 
 92 H1       6.1230    17.4097    35.5154 H     31 HOH   0.4170 
 93 H2       6.7007    17.3034    36.9107 H     31 HOH   0.4170 
 94 O       -8.6458    32.7134    37.6416 O.3   32 HOH   0.0000 
 95 H1      -7.6858    32.7134    37.6416 H     32 HOH   0.0000 
 96 H2      -8.9361    33.3605    38.2886 H     32 HOH   0.0000 
 97 O       -6.5418    23.7899    17.0983 O.3   33 HOH   0.0000 
 98 H1      -5.5818    23.7899    17.0983 H     33 HOH   0.0000 
 99 H2      -6.8320    24.4369    17.7454 H     33 HOH   0.0000 
100 O       -6.7020    29.1975    38.9558 O.3   34 HOH   0.0000 
101 H1      -5.7420    29.1975    38.9558 H     34 HOH   0.0000 
102 H2      -6.9923    29.8446    39.6029 H     34 HOH   0.0000 
103 O        8.2225    14.8365    41.7959 O.3   35 HOH   0.0000 
104 H1       9.1825    14.8365    41.7959 H     35 HOH   0.0000 
105 H2       7.9322    15.4836    42.4430 H     35 HOH   0.0000 
106 O       -0.6231    27.2601    46.9149 O.3   36 HOH   0.0000 
107 H1       0.3369    27.2601    46.9149 H     36 HOH   0.0000 
108 H2      -0.9133    27.9072    47.5620 H     36 HOH   0.0000 
109 O       -6.1313    13.1874    21.6824 O.3   37 HOH   0.0000 
110 H1      -5.1713    13.1874    21.6824 H     37 HOH   0.0000 
111 H2      -6.4215    13.8344    22.3295 H     37 HOH   0.0000 
112 O       -6.1935    16.8951    15.6574 O.3   38 HOH   0.0000 
113 H1      -5.2335    16.8951    15.6574 H     38 HOH   0.0000 
114 H2      -6.4837    17.5422    16.3044 H     38 HOH   0.0000 
115 O       -0.3002    12.6071    38.0381 O.3   39 HOH   0.0000 
116 H1       0.6598    12.6071    38.0381 H     39 HOH   0.0000 
117 H2      -0.5905    13.2541    38.6851 H     39 HOH   0.0000 
118 O      -21.5056     6.5716    45.1859 O.3   40 HOH   0.0000 
119 H1     -20.5456     6.5716    45.1859 H     40 HOH   0.0000 
120 H2     -21.7958     7.2186    45.8330 H     40 HOH   0.0000 
121 O       -1.5922    32.9502    37.4684 O.3   41 HOH   0.0000 
122 H1      -0.6322    32.9502    37.4684 H     41 HOH   0.0000 
123 H2      -1.8824    33.5973    38.1155 H     41 HOH   0.0000 
124 O       -1.4322     9.8007    38.5778 O.3   42 HOH   0.0000 
125 H1      -0.4722     9.8007    38.5778 H     42 HOH   0.0000 
126 H2      -1.7224    10.4478    39.2248 H     42 HOH   0.0000 
127 O      -11.6657    -3.6556    26.9435 O.3   43 HOH   0.0000 
128 H1     -10.7057    -3.6556    26.9435 H     43 HOH   0.0000 
129 H2     -11.9560    -3.0085    27.5906 H     43 HOH   0.0000 
130 O        0.7528     4.4043    25.1824 O.3   44 HOH   0.0000 
131 H1       1.7128     4.4043    25.1824 H     44 HOH   0.0000 
132 H2       0.4626     5.0514    25.8295 H     44 HOH   0.0000 
133 O      -13.3447     5.2256    10.2484 O.3   45 HOH   0.0000 
134 H1     -12.3847     5.2256    10.2484 H     45 HOH   0.0000 
135 H2     -13.6349     5.8726    10.8955 H     45 HOH   0.0000 
136 O      -12.3238    14.7333    49.4911 O.3   46 HOH   0.0000 
137 H1     -11.3638    14.7333    49.4911 H     46 HOH   0.0000 
138 H2     -12.6140    15.3803    50.1382 H     46 HOH   0.0000 
139 O       -6.9234     6.2026    33.8348 O.3   47 HOH   0.0000 
140 H1      -5.9634     6.2026    33.8348 H     47 HOH   0.0000 
141 H2      -7.2137     6.8497    34.4819 H     47 HOH   0.0000 
142 O       -7.8882     0.1193    35.9198 O.3   48 HOH   0.0000 
143 H1      -6.9282     0.1193    35.9198 H     48 HOH   0.0000 
144 H2      -8.1785     0.7664    36.5669 H     48 HOH   0.0000 
145 O        8.3861    35.3832    29.4811 O.3   49 HOH   0.0000 
146 H1       9.3461    35.3832    29.4811 H     49 HOH   0.0000 
147 H2       8.0958    36.0303    30.1282 H     49 HOH   0.0000 
148 O       -3.9838    17.1707    21.5395 O.3   50 HOH   0.0000 
149 H1      -3.0238    17.1707    21.5395 H     50 HOH   0.0000 
150 H2      -4.2741    17.8177    22.1866 H     50 HOH   0.0000 
151 O       11.7410    37.5753    33.5397 O.3   51 HOH   0.0000 
152 H1      12.7010    37.5753    33.5397 H     51 HOH   0.0000 
153 H2      11.4508    38.2223    34.1868 H     51 HOH   0.0000 
154 O      -13.2363     4.8744    22.9819 O.3   52 HOH   0.0000 
155 H1     -12.2763     4.8744    22.9819 H     52 HOH   0.0000 
156 H2     -13.5265     5.5214    23.6290 H     52 HOH   0.0000 
157 O       -8.7773    -0.7444    10.9146 O.3   53 HOH   0.0000 
158 H1      -7.8173    -0.7444    10.9146 H     53 HOH   0.0000 
159 H2      -9.0676    -0.0973    11.5617 H     53 HOH   0.0000 
160 O      -15.7478    29.0223    34.4564 O.3   54 HOH   0.0000 
161 H1     -14.7878    29.0223    34.4564 H     54 HOH   0.0000 
162 H2     -16.0381    29.6694    35.1035 H     54 HOH   0.0000 
163 O      -18.1746    -0.9416    22.6688 O.3   55 HOH   0.0000 
164 H1     -17.2146    -0.9416    22.6688 H     55 HOH   0.0000 
165 H2     -18.4649    -0.2945    23.3158 H     55 HOH   0.0000 
166 O       -2.6075     1.3822    17.7522 O.3   56 HOH   0.0000 
167 H1      -1.6475     1.3822    17.7522 H     56 HOH   0.0000 
168 H2      -2.8978     2.0292    18.3992 H     56 HOH   0.0000 
169 O      -21.8085    14.8488    48.0314 O.3   57 HOH   0.0000 
170 H1     -20.8485    14.8488    48.0314 H     57 HOH   0.0000 
171 H2     -22.0988    15.4959    48.6784 H     57 HOH   0.0000 
172 O      -25.2388     7.5547    38.3080 O.3   58 HOH   0.0000 
173 H1     -24.2788     7.5547    38.3080 H     58 HOH   0.0000 
174 H2     -25.5291     8.2017    38.9551 H     58 HOH   0.0000 
175 O       -5.5747    -8.7438    26.8769 O.3   59 HOH   0.0000 
176 H1      -4.6147    -8.7438    26.8769 H     59 HOH   0.0000 
177 H2      -5.8650    -8.0968    27.5240 H     59 HOH   0.0000 
178 O      -11.0460    17.2329     9.3957 O.3   60 HOH   0.0000 
179 H1     -10.0860    17.2329     9.3957 H     60 HOH   0.0000 
180 H2     -11.3363    17.8800    10.0427 H     60 HOH   0.0000 
181 O      -12.4048    17.8806    47.7690 O.3   61 HOH   0.0000 
182 H1     -11.4448    17.8806    47.7690 H     61 HOH   0.0000 
183 H2     -12.6951    18.5276    48.4161 H     61 HOH   0.0000 
184 O       -5.2291    -2.0843    30.4555 O.3   62 HOH   0.0000 
185 H1      -4.2691    -2.0843    30.4555 H     62 HOH   0.0000 
186 H2      -5.5193    -1.4372    31.1026 H     62 HOH   0.0000 
187 O        0.5630    15.7584    45.6091 O.3   63 HOH  -0.8340 
188 H1      -0.0110    15.8521    46.3694 H     63 HOH   0.4170 
189 H2       0.4469    16.5723    45.1189 H     63 HOH   0.4170 
190 O      -23.9731    10.0256    47.6818 O.3   64 HOH   0.0000 
191 H1     -23.0131    10.0256    47.6818 H     64 HOH   0.0000 
192 H2     -24.2634    10.6727    48.3288 H     64 HOH   0.0000 
193 O      -20.0625    27.4000    26.9520 O.3   65 HOH   0.0000 
194 H1     -19.1025    27.4000    26.9520 H     65 HOH   0.0000 
195 H2     -20.3528    28.0470    27.5990 H     65 HOH   0.0000 
196 O        9.5202    37.5689    45.7043 O.3   66 HOH   0.0000 
197 H1      10.4802    37.5689    45.7043 H     66 HOH   0.0000 
198 H2       9.2300    38.2159    46.3514 H     66 HOH   0.0000 
199 O      -10.4328    28.7096    41.1492 O.3   67 HOH   0.0000 
200 H1      -9.4728    28.7096    41.1492 H     67 HOH   0.0000 
201 H2     -10.7231    29.3567    41.7962 H     67 HOH   0.0000 
202 O      -13.5393    30.8572    28.1498 O.3   68 HOH   0.0000 
203 H1     -12.5793    30.8572    28.1498 H     68 HOH   0.0000 
204 H2     -13.8296    31.5042    28.7969 H     68 HOH   0.0000 
205 O       10.3637    32.7366    30.2829 O.3   69 HOH   0.0000 
206 H1      11.3237    32.7366    30.2829 H     69 HOH   0.0000 
207 H2      10.0735    33.3837    30.9300 H     69 HOH   0.0000 
208 O      -15.1786    27.9187    36.8136 O.3   70 HOH   0.0000 
209 H1     -14.2186    27.9187    36.8136 H     70 HOH   0.0000 
210 H2     -15.4688    28.5657    37.4606 H     70 HOH   0.0000 
211 O       -5.8724    -6.5382    14.6774 O.3   71 HOH   0.0000 
212 H1      -4.9124    -6.5382    14.6774 H     71 HOH   0.0000 
213 H2      -6.1626    -5.8912    15.3244 H     71 HOH   0.0000 
214 O        4.0553    44.9602    34.9045 O.3   72 HOH   0.0000 
215 H1       5.0153    44.9602    34.9045 H     72 HOH   0.0000 
216 H2       3.7650    45.6073    35.5516 H     72 HOH   0.0000 
217 O       -6.7205    23.6702    47.5683 O.3   73 HOH   0.0000 
218 H1      -5.7605    23.6702    47.5683 H     73 HOH   0.0000 
219 H2      -7.0108    24.3173    48.2154 H     73 HOH   0.0000 
220 O       -0.3595    25.8700    21.5375 O.3   74 HOH  -0.8340 
221 H1      -0.1414    26.7750    21.3146 H     74 HOH   0.4170 
222 H2      -0.4793    25.4369    20.6923 H     74 HOH   0.4170 
223 O       -4.4449     5.2547    33.6468 O.3   75 HOH   0.0000 
224 H1      -3.4849     5.2547    33.6468 H     75 HOH   0.0000 
225 H2      -4.7352     5.9018    34.2938 H     75 HOH   0.0000 
226 O      -19.7452     3.4825    39.3043 O.3   76 HOH   0.0000 
227 H1     -18.7852     3.4825    39.3043 H     76 HOH   0.0000 
228 H2     -20.0354     4.1295    39.9513 H     76 HOH   0.0000 
229 O      -22.6082    25.0674    35.4749 O.3   77 HOH   0.0000 
230 H1     -21.6482    25.0674    35.4749 H     77 HOH   0.0000 
231 H2     -22.8984    25.7145    36.1220 H     77 HOH   0.0000 
232 O      -17.8250    25.2407    36.1607 O.3   78 HOH   0.0000 
233 H1     -16.8650    25.2407    36.1607 H     78 HOH   0.0000 
234 H2     -18.1153    25.8877    36.8077 H     78 HOH   0.0000 
235 O      -23.0614    11.2700    20.3028 O.3   79 HOH   0.0000 
236 H1     -22.1014    11.2700    20.3028 H     79 HOH   0.0000 
237 H2     -23.3517    11.9170    20.9499 H     79 HOH   0.0000 
238 O       -1.7071    11.1229    45.0979 O.3   80 HOH   0.0000 
239 H1      -0.7471    11.1229    45.0979 H     80 HOH   0.0000 
240 H2      -1.9973    11.7699    45.7449 H     80 HOH   0.0000 
241 O       -0.1828     3.3623    16.5422 O.3   81 HOH   0.0000 
242 H1       0.7772     3.3623    16.5422 H     81 HOH   0.0000 
243 H2      -0.4731     4.0093    17.1892 H     81 HOH   0.0000 
244 O        4.5841    21.0560    29.6366 O.3   82 HOH  -0.8340 
245 H1       5.0519    21.1491    30.4665 H     82 HOH   0.4170 
246 H2       3.8727    20.4452    29.8292 H     82 HOH   0.4170 
247 O       -8.4690    28.1433    43.7643 O.3   83 HOH   0.0000 
248 H1      -7.5090    28.1433    43.7643 H     83 HOH   0.0000 
249 H2      -8.7592    28.7904    44.4114 H     83 HOH   0.0000 
250 O      -14.1587    26.0278    39.9807 O.3   84 HOH   0.0000 
251 H1     -13.1987    26.0278    39.9807 H     84 HOH   0.0000 
252 H2     -14.4489    26.6748    40.6278 H     84 HOH   0.0000 
253 O      -18.8906    20.1571    45.7876 O.3   85 HOH   0.0000 
254 H1     -17.9306    20.1571    45.7876 H     85 HOH   0.0000 
255 H2     -19.1809    20.8042    46.4346 H     85 HOH   0.0000 
256 O       -2.7285    29.1397    46.4844 O.3   86 HOH   0.0000 
257 H1      -1.7685    29.1397    46.4844 H     86 HOH   0.0000 
258 H2      -3.0187    29.7867    47.1315 H     86 HOH   0.0000 
259 O      -14.4301    28.3584    23.3610 O.3   87 HOH   0.0000 
260 H1     -13.4701    28.3584    23.3610 H     87 HOH   0.0000 
261 H2     -14.7203    29.0054    24.0080 H     87 HOH   0.0000 
262 O       -2.9696     3.6802    31.7066 O.3   88 HOH   0.0000 
263 H1      -2.0096     3.6802    31.7066 H     88 HOH   0.0000 
264 H2      -3.2599     4.3273    32.3537 H     88 HOH   0.0000 
@<TRIPOS>BOND
  1   1   2  1   
  2   1   3  1   
  3   4   5  1   
  4   4   6  1   
  5   7   8  1   
  6   7   9  1   
  7  10  11  1   
  8  10  12  1   
  9  13  14  1   
 10  13  15  1   
 11  16  17  1   
 12  16  18  1   
 13  19  20  1   
 14  19  21  1   
 15  22  23  1   
 16  22  24  1   
 17  25  26  1   
 18  25  27  1   
 19  28  29  1   
 20  28  30  1   
 21  31  32  1   
 22  31  33  1   
 23  34  35  1   
 24  34  36  1   
 25  37  38  1   
 26  37  39  1   
 27  40  41  1   
 28  40  42  1   
 29  43  44  1   
 30  43  45  1   
 31  46  47  1   
 32  46  48  1   
 33  49  50  1   
 34  49  51  1   
 35  52  53  1   
 36  52  54  1   
 37  55  56  1   
 38  55  57  1   
 39  58  59  1   
 40  58  60  1   
 41  61  62  1   
 42  61  63  1   
 43  64  65  1   
 44  64  66  1   
 45  67  68  1   
 46  67  69  1   
 47  70  71  1   
 48  70  72  1   
 49  73  74  1   
 50  73  75  1   
 51  76  77  1   
 52  76  78  1   
 53  79  80  1   
 54  79  81  1   
 55  82  83  1   
 56  82  84  1   
 57  85  86  1   
 58  85  87  1   
 59  88  89  1   
 60  88  90  1   
 61  91  92  1   
 62  91  93  1   
 63  94  95  1   
 64  94  96  1   
 65  97  98  1   
 66  97  99  1   
 67 100 101  1   
 68 100 102  1   
 69 103 104  1   
 70 103 105  1   
 71 106 107  1   
 72 106 108  1   
 73 109 110  1   
 74 109 111  1   
 75 112 113  1   
 76 112 114  1   
 77 115 116  1   
 78 115 117  1   
 79 118 119  1   
 80 118 120  1   
 81 121 122  1   
 82 121 123  1   
 83 124 125  1   
 84 124 126  1   
 85 127 128  1   
 86 127 129  1   
 87 130 131  1   
 88 130 132  1   
 89 133 134  1   
 90 133 135  1   
 91 136 137  1   
 92 136 138  1   
 93 139 140  1   
 94 139 141  1   
 95 142 143  1   
 96 142 144  1   
 97 145 146  1   
 98 145 147  1   
 99 148 149  1   
100 148 150  1   
101 151 152  1   
102 151 153  1   
103 154 155  1   
104 154 156  1   
105 157 158  1   
106 157 159  1   
107 160 161  1   
108 160 162  1   
109 163 164  1   
110 163 165  1   
111 166 167  1   
112 166 168  1   
113 169 170  1   
114 169 171  1   
115 172 173  1   
116 172 174  1   
117 175 176  1   
118 175 177  1   
119 178 179  1   
120 178 180  1   
121 181 182  1   
122 181 183  1   
123 184 185  1   
124 184 186  1   
125 187 188  1   
126 187 189  1   
127 190 191  1   
128 190 192  1   
129 193 194  1   
130 193 195  1   
131 196 197  1   
132 196 198  1   
133 199 200  1   
134 199 201  1   
135 202 203  1   
136 202 204  1   
137 205 206  1   
138 205 207  1   
139 208 209  1   
140 208 210  1   
141 211 212  1   
142 211 213  1   
143 214 215  1   
144 214 216  1   
145 217 218  1   
146 217 219  1   
147 220 221  1   
148 220 222  1   
149 223 224  1   
150 223 225  1   
151 226 227  1   
152 226 228  1   
153 229 230  1   
154 229 231  1   
155 232 233  1   
156 232 234  1   
157 235 236  1   
158 235 237  1   
159 238 239  1   
160 238 240  1   
161 241 242  1   
162 241 243  1   
163 244 245  1   
164 244 246  1   
165 247 248  1   
166 247 249  1   
167 250 251  1   
168 250 252  1   
169 253 254  1   
170 253 255  1   
171 256 257  1   
172 256 258  1   
173 259 260  1   
174 259 261  1   
175 262 263  1   
176 262 264  1   
@<TRIPOS>SUBSTRUCTURE
  1 HOH   1 GROUP 4 A **** 0
  2 HOH   4 GROUP 4 A **** 0
  3 HOH   7 GROUP 4 A **** 0
  4 HOH  10 GROUP 4 A **** 0
  5 HOH  13 GROUP 4 A **** 0
  6 HOH  16 GROUP 4 A **** 0
  7 HOH  19 GROUP 4 A **** 0
  8 HOH  22 GROUP 4 A **** 0
  9 HOH  25 GROUP 4 A **** 0
 10 HOH  28 GROUP 4 A **** 0
 11 HOH  31 GROUP 4 A **** 0
 12 HOH  34 GROUP 4 A **** 0
 13 HOH  37 GROUP 4 A **** 0
 14 HOH  40 GROUP 4 A **** 0
 15 HOH  43 GROUP 4 A **** 0
 16 HOH  46 GROUP 4 A **** 0
 17 HOH  49 GROUP 4 A **** 0
 18 HOH  52 GROUP 4 A **** 0
 19 HOH  55 GROUP 4 A **** 0
 20 HOH  58 GROUP 4 A **** 0
 21 HOH  61 GROUP 4 A **** 0
 22 HOH  64 GROUP 4 A **** 0
 23 HOH  67 GROUP 4 A **** 0
 24 HOH  70 GROUP 4 A **** 0
 25 HOH  73 GROUP 4 A **** 0
 26 HOH  76 GROUP 4 A **** 0
 27 HOH  79 GROUP 4 A **** 0
 28 HOH  82 GROUP 4 A **** 0
 29 HOH  85 GROUP 4 A **** 0
 30 HOH  88 GROUP 4 A **** 0
 31 HOH  91 GROUP 4 A **** 0
 32 HOH  94 GROUP 4 A **** 0
 33 HOH  97 GROUP 4 A **** 0
 34 HOH 100 GROUP 4 A **** 0
 35 HOH 103 GROUP 4 A **** 0
 36 HOH 106 GROUP 4 A **** 0
 37 HOH 109 GROUP 4 A **** 0
 38 HOH 112 GROUP 4 A **** 0
 39 HOH 115 GROUP 4 A **** 0
 40 HOH 118 GROUP 4 A **** 0
 41 HOH 121 GROUP 4 A **** 0
 42 HOH 124 GROUP 4 A **** 0
 43 HOH 127 GROUP 4 A **** 0
 44 HOH 130 GROUP 4 A **** 0
 45 HOH 133 GROUP 4 A **** 0
 46 HOH 136 GROUP 4 A **** 0
 47 HOH 139 GROUP 4 A **** 0
 48 HOH 142 GROUP 4 A **** 0
 49 HOH 145 GROUP 4 A **** 0
 50 HOH 148 GROUP 4 A **** 0
 51 HOH 151 GROUP 4 A **** 0
 52 HOH 154 GROUP 4 A **** 0
 53 HOH 157 GROUP 4 A **** 0
 54 HOH 160 GROUP 4 A **** 0
 55 HOH 163 GROUP 4 A **** 0
 56 HOH 166 GROUP 4 A **** 0
 57 HOH 169 GROUP 4 A **** 0
 58 HOH 172 GROUP 4 A **** 0
 59 HOH 175 GROUP 4 A **** 0
 60 HOH 178 GROUP 4 A **** 0
 61 HOH 181 GROUP 4 A **** 0
 62 HOH 184 GROUP 4 A **** 0
 63 HOH 187 GROUP 4 A **** 0
 64 HOH 190 GROUP 4 A **** 0
 65 HOH 193 GROUP 4 A **** 0
 66 HOH 196 GROUP 4 A **** 0
 67 HOH 199 GROUP 4 A **** 0
 68 HOH 202 GROUP 4 A **** 0
 69 HOH 205 GROUP 4 A **** 0
 70 HOH 208 GROUP 4 A **** 0
 71 HOH 211 GROUP 4 A **** 0
 72 HOH 214 GROUP 4 A **** 0
 73 HOH 217 GROUP 4 A **** 0
 74 HOH 220 GROUP 4 A **** 0
 75 HOH 223 GROUP 4 A **** 0
 76 HOH 226 GROUP 4 A **** 0
 77 HOH 229 GROUP 4 A **** 0
 78 HOH 232 GROUP 4 A **** 0
 79 HOH 235 GROUP 4 A **** 0
 80 HOH 238 GROUP 4 A **** 0
 81 HOH 241 GROUP 4 A **** 0
 82 HOH 244 GROUP 4 A **** 0
 83 HOH 247 GROUP 4 A **** 0
 84 HOH 250 GROUP 4 A **** 0
 85 HOH 253 GROUP 4 A **** 0
 86 HOH 256 GROUP 4 A **** 0
 87 HOH 259 GROUP 4 A **** 0
 88 HOH 262 GROUP 4 A **** 0

# MOE 2012.10 (io_trps.svl 2012.10)
