@<TRIPOS>MOLECULE
2hz0.B
53 55 1 0 0 
SMALL
USER_CHARGES


@<TRIPOS>ATOM
  1 C12      1.7800    23.1994    34.7761 C.2   1 GIN   0.5438 
  2 C16      1.2590    23.7501    32.5155 C.ar  1 GIN   0.1170 
  3 C19     -0.4759    23.8505    30.2699 C.ar  1 GIN  -0.1435 
  4 C20      0.9182    23.6150    30.0993 C.ar  1 GIN  -0.1500 
  5 H20      1.3195    23.4729    29.1067 H     1 GIN   0.1500 
  6 C21      1.7648    23.5665    31.1964 C.ar  1 GIN  -0.1500 
  7 H21      2.8196    23.3874    31.0493 H     1 GIN   0.1500 
  8 C24     -1.3459    23.9128    29.0295 C.3   1 GIN  -0.0165 
  9 H241    -2.3914    23.8527    29.3318 H     1 GIN   0.0800 
 10 H242    -1.1036    23.0648    28.3890 H     1 GIN   0.0800 
 11 C30     -1.1354    25.2163    28.2276 C.3   1 GIN  -0.1600 
 12 H301    -0.0944    25.2890    27.9126 H     1 GIN   0.0800 
 13 H302    -1.3873    26.0747    28.8504 H     1 GIN   0.0800 
 14 C31     -2.0418    25.1885    27.0015 C.3   1 GIN  -0.2400 
 15 H311    -1.7873    24.3292    26.3810 H     1 GIN   0.0800 
 16 H312    -1.9044    26.1047    26.4272 H     1 GIN   0.0800 
 17 H313    -3.0814    25.1117    27.3198 H     1 GIN   0.0800 
 18 C32      1.8236    20.2895    37.9512 C.3   1 GIN   0.3473 
 19 H321     1.2273    19.5094    37.4779 H     1 GIN   0.0800 
 20 H322     2.8684    19.9801    37.9816 H     1 GIN   0.0800 
 21 C33      1.3212    20.4898    39.4006 C.2   1 GIN  -0.1382 
 22 C34      1.3126    19.3616    40.3414 C.2   1 GIN  -0.1500 
 23 H34      1.6663    18.3978    40.0061 H     1 GIN   0.1500 
 24 C35      0.8598    19.4972    41.6597 C.2   1 GIN  -0.1356 
 25 H35      0.8803    18.6438    42.3213 H     1 GIN   0.1500 
 26 C01      2.7943    23.3148    35.7965 C.ar  1 GIN   0.0862 
 27 C02      3.7913    24.2347    35.6497 C.ar  1 GIN  -0.1500 
 28 H02      3.8112    24.8599    34.7694 H     1 GIN   0.1500 
 29 C03      4.7870    24.3814    36.6192 C.ar  1 GIN  -0.1500 
 30 H03      5.5773    25.1063    36.4908 H     1 GIN   0.1500 
 31 C04      4.7410    23.5712    37.7599 C.ar  1 GIN  -0.1500 
 32 H04      5.4903    23.6750    38.5308 H     1 GIN   0.1500 
 33 C05      3.7261    22.6334    37.8939 C.ar  1 GIN  -0.1500 
 34 H05      3.7080    21.9993    38.7679 H     1 GIN   0.1500 
 35 C06      2.7576    22.4930    36.9565 C.ar  1 GIN   0.1000 
 36 N11      1.7156    21.5351    37.1393 N.pl3 1 GIN  -0.8691 
 37 H11      0.8336    21.7157    36.6816 H     1 GIN   0.4000 
 38 N13      2.1349    23.7211    33.5905 N.am  1 GIN  -0.5470 
 39 H13      3.0636    24.1020    33.4789 H     1 GIN   0.3700 
 40 O14      0.6901    22.6542    35.0311 O.2   1 GIN  -0.5700 
 41 C17     -0.1114    24.0054    32.6791 C.ar  1 GIN  -0.1500 
 42 H17     -0.5017    24.1780    33.6712 H     1 GIN   0.1500 
 43 C18     -0.9969    24.0417    31.5679 C.ar  1 GIN  -0.1435 
 44 C23     -2.4765    24.3733    31.8008 C.3   1 GIN   1.1635 
 45 F27     -2.7396    24.6186    33.1141 F     1 GIN  -0.3400 
 46 F28     -2.9537    25.4519    31.1113 F     1 GIN  -0.3400 
 47 F29     -3.2752    23.3914    31.4558 F     1 GIN  -0.3400 
 48 C36      0.3625    20.7731    42.1483 C.2   1 GIN   0.6156 
 49 N37      0.4272    21.8273    41.1864 N.am  1 GIN  -0.5390 
 50 H37      0.1205    22.7434    41.4809 H     1 GIN   0.3700 
 51 C38      0.8816    21.6941    39.8679 C.2   1 GIN  -0.0410 
 52 H38      0.8838    22.5538    39.2143 H     1 GIN   0.1500 
 53 O41     -0.0633    20.9444    43.2591 O.2   1 GIN  -0.5700 
@<TRIPOS>BOND
  1   1  26  1   
  2   1  38  am  
  3   1  40  2   
  4   2   6  ar  
  5   2  38  1   
  6   2  41  ar  
  7   3   4  ar  
  8   3   8  1   
  9   3  43  ar  
 10   4   5  1   
 11   4   6  ar  
 12   6   7  1   
 13   8   9  1   
 14   8  10  1   
 15   8  11  1   
 16  11  12  1   
 17  11  13  1   
 18  11  14  1   
 19  14  15  1   
 20  14  16  1   
 21  14  17  1   
 22  18  19  1   
 23  18  20  1   
 24  18  21  1   
 25  18  36  1   
 26  21  22  1   
 27  21  51  2   
 28  22  23  1   
 29  22  24  2   
 30  24  25  1   
 31  24  48  1   
 32  26  27  ar  
 33  26  35  ar  
 34  27  28  1   
 35  27  29  ar  
 36  29  30  1   
 37  29  31  ar  
 38  31  32  1   
 39  31  33  ar  
 40  33  34  1   
 41  33  35  ar  
 42  35  36  1   
 43  36  37  1   
 44  38  39  1   
 45  41  42  1   
 46  41  43  ar  
 47  43  44  1   
 48  44  45  1   
 49  44  46  1   
 50  44  47  1   
 51  48  49  am  
 52  48  53  2   
 53  49  50  1   
 54  49  51  1   
 55  51  52  1   
@<TRIPOS>SUBSTRUCTURE
  1 GIN  40 GROUP 4 B **** 0

# MOE 2012.10 (io_trps.svl 2012.10)
