@<TRIPOS>MOLECULE
2hz0.B
585 390 195 0 0 
SMALL
USER_CHARGES


@<TRIPOS>ATOM
  1 O       -8.2721     6.8563    22.6762 O.3     1 HOH   0.0000 
  2 H1      -7.3121     6.8563    22.6762 H       1 HOH   0.0000 
  3 H2      -8.5624     7.5033    23.3232 H       1 HOH   0.0000 
  4 O       -4.0454    17.1859    21.6001 O.3     2 HOH   0.0000 
  5 H1      -3.0854    17.1859    21.6001 H       2 HOH   0.0000 
  6 H2      -4.3357    17.8330    22.2471 H       2 HOH   0.0000 
  7 O       -3.0801    12.6648    26.9536 O.3     3 HOH   0.0000 
  8 H1      -2.1201    12.6648    26.9536 H       3 HOH   0.0000 
  9 H2      -3.3703    13.3119    27.6006 H       3 HOH   0.0000 
 10 O      -11.9118    17.6686    47.5315 O.3     4 HOH   0.0000 
 11 H1     -10.9518    17.6686    47.5315 H       4 HOH   0.0000 
 12 H2     -12.2020    18.3157    48.1786 H       4 HOH   0.0000 
 13 O       -7.0127    29.3262    38.9447 O.3     5 HOH   0.0000 
 14 H1      -6.0527    29.3262    38.9447 H       5 HOH   0.0000 
 15 H2      -7.3029    29.9732    39.5917 H       5 HOH   0.0000 
 16 O       -4.4880    12.6401    44.3772 O.3     6 HOH   0.0000 
 17 H1      -3.5280    12.6401    44.3772 H       6 HOH   0.0000 
 18 H2      -4.7783    13.2872    45.0243 H       6 HOH   0.0000 
 19 O       -4.8415     9.8487    33.3751 O.3     7 HOH   0.0000 
 20 H1      -3.8815     9.8487    33.3751 H       7 HOH   0.0000 
 21 H2      -5.1318    10.4957    34.0222 H       7 HOH   0.0000 
 22 O       -6.0167     6.3728    20.9549 O.3     8 HOH   0.0000 
 23 H1      -5.0567     6.3728    20.9549 H       8 HOH   0.0000 
 24 H2      -6.3070     7.0199    21.6020 H       8 HOH   0.0000 
 25 O      -16.2168    11.4183    11.9502 O.3     9 HOH   0.0000 
 26 H1     -15.2568    11.4183    11.9502 H       9 HOH   0.0000 
 27 H2     -16.5071    12.0654    12.5972 H       9 HOH   0.0000 
 28 O       -4.9480    16.3604    24.9042 O.3    10 HOH   0.0000 
 29 H1      -3.9880    16.3604    24.9042 H      10 HOH   0.0000 
 30 H2      -5.2383    17.0075    25.5512 H      10 HOH   0.0000 
 31 O      -17.7783     7.5630    18.7467 O.3    11 HOH   0.0000 
 32 H1     -16.8183     7.5630    18.7467 H      11 HOH   0.0000 
 33 H2     -18.0686     8.2100    19.3938 H      11 HOH   0.0000 
 34 O        4.4327    19.7060    28.5157 O.3    12 HOH  -0.8340 
 35 H1       4.2045    19.3120    27.6737 H      12 HOH   0.4170 
 36 H2       3.6261    19.6595    29.0290 H      12 HOH   0.4170 
 37 O      -12.8011     4.8375    22.7126 O.3    13 HOH   0.0000 
 38 H1     -11.8411     4.8375    22.7126 H      13 HOH   0.0000 
 39 H2     -13.0913     5.4846    23.3597 H      13 HOH   0.0000 
 40 O       -5.9214    13.2467    21.6859 O.3    14 HOH   0.0000 
 41 H1      -4.9614    13.2467    21.6859 H      14 HOH   0.0000 
 42 H2      -6.2116    13.8938    22.3330 H      14 HOH   0.0000 
 43 O      -15.2416    23.3222    44.5964 O.3    15 HOH   0.0000 
 44 H1     -14.2816    23.3222    44.5964 H      15 HOH   0.0000 
 45 H2     -15.5319    23.9692    45.2435 H      15 HOH   0.0000 
 46 O      -15.0532    25.5312    39.9104 O.3    16 HOH   0.0000 
 47 H1     -14.0932    25.5312    39.9104 H      16 HOH   0.0000 
 48 H2     -15.3434    26.1782    40.5575 H      16 HOH   0.0000 
 49 O       15.7448    32.9817    29.8378 O.3    17 HOH   0.0000 
 50 H1      16.7048    32.9817    29.8378 H      17 HOH   0.0000 
 51 H2      15.4545    33.6288    30.4848 H      17 HOH   0.0000 
 52 O       -4.2182     5.5606    33.6778 O.3    18 HOH   0.0000 
 53 H1      -3.2582     5.5606    33.6778 H      18 HOH   0.0000 
 54 H2      -4.5085     6.2076    34.3249 H      18 HOH   0.0000 
 55 O       -6.5812     6.0408    33.6251 O.3    19 HOH   0.0000 
 56 H1      -5.6212     6.0408    33.6251 H      19 HOH   0.0000 
 57 H2      -6.8715     6.6878    34.2721 H      19 HOH   0.0000 
 58 O       -5.4192    30.2758    35.9777 O.3    20 HOH   0.0000 
 59 H1      -4.4592    30.2758    35.9777 H      20 HOH   0.0000 
 60 H2      -5.7095    30.9229    36.6248 H      20 HOH   0.0000 
 61 O       -1.4025     4.9621    26.6485 O.3    21 HOH   0.0000 
 62 H1      -0.4425     4.9621    26.6485 H      21 HOH   0.0000 
 63 H2      -1.6928     5.6091    27.2955 H      21 HOH   0.0000 
 64 O      -13.8432    21.8558    51.8006 O.3    22 HOH   0.0000 
 65 H1     -12.8832    21.8558    51.8006 H      22 HOH   0.0000 
 66 H2     -14.1335    22.5028    52.4476 H      22 HOH   0.0000 
 67 O      -11.8564    -1.2022    25.7801 O.3    23 HOH   0.0000 
 68 H1     -10.8964    -1.2022    25.7801 H      23 HOH   0.0000 
 69 H2     -12.1467    -0.5551    26.4271 H      23 HOH   0.0000 
 70 O       -4.1074    14.6689    22.8666 O.3    24 HOH   0.0000 
 71 H1      -3.1474    14.6689    22.8666 H      24 HOH   0.0000 
 72 H2      -4.3977    15.3160    23.5136 H      24 HOH   0.0000 
 73 O       -8.1977    -0.5528    10.7708 O.3    25 HOH   0.0000 
 74 H1      -7.2377    -0.5528    10.7708 H      25 HOH   0.0000 
 75 H2      -8.4879     0.0943    11.4178 H      25 HOH   0.0000 
 76 O       -2.9337     7.8436    33.2915 O.3    26 HOH   0.0000 
 77 H1      -1.9737     7.8436    33.2915 H      26 HOH   0.0000 
 78 H2      -3.2240     8.4906    33.9386 H      26 HOH   0.0000 
 79 O      -16.5013     8.5429    13.9288 O.3    27 HOH   0.0000 
 80 H1     -15.5413     8.5429    13.9288 H      27 HOH   0.0000 
 81 H2     -16.7916     9.1900    14.5758 H      27 HOH   0.0000 
 82 O       -9.0913    -0.5215    35.2743 O.3    28 HOH   0.0000 
 83 H1      -8.1313    -0.5215    35.2743 H      28 HOH   0.0000 
 84 H2      -9.3816     0.1255    35.9213 H      28 HOH   0.0000 
 85 O       10.5204    33.3622    49.8703 O.3    29 HOH   0.0000 
 86 H1      11.4804    33.3622    49.8703 H      29 HOH   0.0000 
 87 H2      10.2302    34.0093    50.5173 H      29 HOH   0.0000 
 88 O      -13.7839     5.4627    13.3598 O.3    30 HOH   0.0000 
 89 H1     -12.8239     5.4627    13.3598 H      30 HOH   0.0000 
 90 H2     -14.0742     6.1097    14.0068 H      30 HOH   0.0000 
 91 O       -6.1241    16.9969    15.6316 O.3    31 HOH   0.0000 
 92 H1      -5.1641    16.9969    15.6316 H      31 HOH   0.0000 
 93 H2      -6.4143    17.6439    16.2786 H      31 HOH   0.0000 
 94 O      -31.2837    22.2758    32.9421 O.3    32 HOH   0.0000 
 95 H1     -30.3237    22.2758    32.9421 H      32 HOH   0.0000 
 96 H2     -31.5740    22.9228    33.5892 H      32 HOH   0.0000 
 97 O      -24.0801    21.7940    23.8665 O.3    33 HOH   0.0000 
 98 H1     -23.1201    21.7940    23.8665 H      33 HOH   0.0000 
 99 H2     -24.3704    22.4410    24.5136 H      33 HOH   0.0000 
100 O      -12.9178    11.4009    49.0626 O.3    34 HOH   0.0000 
101 H1     -11.9578    11.4009    49.0626 H      34 HOH   0.0000 
102 H2     -13.2081    12.0479    49.7096 H      34 HOH   0.0000 
103 O       -6.5070    23.9014    17.0224 O.3    35 HOH   0.0000 
104 H1      -5.5470    23.9014    17.0224 H      35 HOH   0.0000 
105 H2      -6.7972    24.5485    17.6694 H      35 HOH   0.0000 
106 O       -1.7834     1.6231    18.0255 O.3    36 HOH   0.0000 
107 H1      -0.8234     1.6231    18.0255 H      36 HOH   0.0000 
108 H2      -2.0736     2.2701    18.6726 H      36 HOH   0.0000 
109 O        3.7096    35.5173    27.6559 O.3    37 HOH   0.0000 
110 H1       4.6696    35.5173    27.6559 H      37 HOH   0.0000 
111 H2       3.4193    36.1644    28.3029 H      37 HOH   0.0000 
112 O      -11.1316    33.4175    32.8567 O.3    38 HOH   0.0000 
113 H1     -10.1716    33.4175    32.8567 H      38 HOH   0.0000 
114 H2     -11.4219    34.0645    33.5037 H      38 HOH   0.0000 
115 O       16.6143    31.4674    36.7142 O.3    39 HOH   0.0000 
116 H1      17.5743    31.4674    36.7142 H      39 HOH   0.0000 
117 H2      16.3240    32.1145    37.3612 H      39 HOH   0.0000 
118 O       -9.5743     8.4796     7.2236 O.3    40 HOH   0.0000 
119 H1      -8.6143     8.4796     7.2236 H      40 HOH   0.0000 
120 H2      -9.8646     9.1266     7.8707 H      40 HOH   0.0000 
121 O      -17.3523    -0.1563    19.6433 O.3    41 HOH   0.0000 
122 H1     -16.3923    -0.1563    19.6433 H      41 HOH   0.0000 
123 H2     -17.6426     0.4908    20.2904 H      41 HOH   0.0000 
124 O      -17.7906    11.1547    33.4288 O.3    42 HOH   0.0000 
125 H1     -16.8306    11.1547    33.4288 H      42 HOH   0.0000 
126 H2     -18.0809    11.8018    34.0758 H      42 HOH   0.0000 
127 O      -31.9557    20.0357    31.8562 O.3    43 HOH   0.0000 
128 H1     -30.9957    20.0357    31.8562 H      43 HOH   0.0000 
129 H2     -32.2460    20.6828    32.5033 H      43 HOH   0.0000 
130 O       -5.7126    23.4508    46.9146 O.3    44 HOH   0.0000 
131 H1      -4.7526    23.4508    46.9146 H      44 HOH   0.0000 
132 H2      -6.0029    24.0979    47.5617 H      44 HOH   0.0000 
133 O        2.3527    15.8681    29.5443 O.3    45 HOH   0.0000 
134 H1       3.3127    15.8681    29.5443 H      45 HOH   0.0000 
135 H2       2.0624    16.5151    30.1913 H      45 HOH   0.0000 
136 O       -0.8491    18.5939    44.4552 O.3    46 HOH  -0.8340 
137 H1      -0.4231    19.3599    44.0704 H      46 HOH   0.4170 
138 H2      -1.3837    18.9483    45.1658 H      46 HOH   0.4170 
139 O        1.3168    13.5805    33.7299 O.3    47 HOH   0.0000 
140 H1       2.2768    13.5805    33.7299 H      47 HOH   0.0000 
141 H2       1.0265    14.2275    34.3770 H      47 HOH   0.0000 
142 O       -8.7766    28.8757    42.8734 O.3    48 HOH   0.0000 
143 H1      -7.8166    28.8757    42.8734 H      48 HOH   0.0000 
144 H2      -9.0668    29.5227    43.5205 H      48 HOH   0.0000 
145 O      -12.2497     4.4466    43.6844 O.3    49 HOH   0.0000 
146 H1     -11.2897     4.4466    43.6844 H      49 HOH   0.0000 
147 H2     -12.5400     5.0936    44.3314 H      49 HOH   0.0000 
148 O        9.6514    36.4338    33.8156 O.3    50 HOH   0.0000 
149 H1      10.6114    36.4338    33.8156 H      50 HOH   0.0000 
150 H2       9.3611    37.0808    34.4626 H      50 HOH   0.0000 
151 O      -12.0827    17.0195     9.8151 O.3    51 HOH   0.0000 
152 H1     -11.1227    17.0195     9.8151 H      51 HOH   0.0000 
153 H2     -12.3729    17.6665    10.4622 H      51 HOH   0.0000 
154 O       15.2923    34.9868    38.5525 O.3    52 HOH   0.0000 
155 H1      16.2523    34.9868    38.5525 H      52 HOH   0.0000 
156 H2      15.0020    35.6338    39.1996 H      52 HOH   0.0000 
157 O      -21.0222    12.3779    34.6085 O.3    53 HOH   0.0000 
158 H1     -20.0622    12.3779    34.6085 H      53 HOH   0.0000 
159 H2     -21.3124    13.0250    35.2555 H      53 HOH   0.0000 
160 O        1.2500    38.2161    32.4856 O.3    54 HOH   0.0000 
161 H1       2.2100    38.2161    32.4856 H      54 HOH   0.0000 
162 H2       0.9597    38.8632    33.1326 H      54 HOH   0.0000 
163 O        7.2209    38.5508    32.7381 O.3    55 HOH   0.0000 
164 H1       8.1809    38.5508    32.7381 H      55 HOH   0.0000 
165 H2       6.9306    39.1979    33.3851 H      55 HOH   0.0000 
166 O       16.4574    46.0919    39.9726 O.3    56 HOH   0.0000 
167 H1      17.4174    46.0919    39.9726 H      56 HOH   0.0000 
168 H2      16.1671    46.7389    40.6197 H      56 HOH   0.0000 
169 O      -16.2944    28.5040    30.5587 O.3    57 HOH   0.0000 
170 H1     -15.3344    28.5040    30.5587 H      57 HOH   0.0000 
171 H2     -16.5847    29.1511    31.2057 H      57 HOH   0.0000 
172 O       -1.9346    18.0415    50.6988 O.3    58 HOH   0.0000 
173 H1      -0.9746    18.0415    50.6988 H      58 HOH   0.0000 
174 H2      -2.2249    18.6885    51.3459 H      58 HOH   0.0000 
175 O       -2.5050    12.5857    24.2458 O.3    59 HOH   0.0000 
176 H1      -1.5450    12.5857    24.2458 H      59 HOH   0.0000 
177 H2      -2.7953    13.2328    24.8928 H      59 HOH   0.0000 
178 O       -0.2301    27.1492    46.7731 O.3    60 HOH   0.0000 
179 H1       0.7299    27.1492    46.7731 H      60 HOH   0.0000 
180 H2      -0.5204    27.7963    47.4201 H      60 HOH   0.0000 
181 O        1.5658    12.4613    36.1931 O.3    61 HOH   0.0000 
182 H1       2.5258    12.4613    36.1931 H      61 HOH   0.0000 
183 H2       1.2756    13.1084    36.8402 H      61 HOH   0.0000 
184 O        0.6669    19.5894    15.4772 O.3    62 HOH   0.0000 
185 H1       1.6269    19.5894    15.4772 H      62 HOH   0.0000 
186 H2       0.3766    20.2365    16.1243 H      62 HOH   0.0000 
187 O      -20.7480     7.1134    36.0104 O.3    63 HOH   0.0000 
188 H1     -19.7880     7.1134    36.0104 H      63 HOH   0.0000 
189 H2     -21.0383     7.7605    36.6574 H      63 HOH   0.0000 
190 O      -13.0350    17.3419    49.7029 O.3    64 HOH   0.0000 
191 H1     -12.0750    17.3419    49.7029 H      64 HOH   0.0000 
192 H2     -13.3253    17.9889    50.3500 H      64 HOH   0.0000 
193 O      -14.6377    -0.6498    26.9845 O.3    65 HOH   0.0000 
194 H1     -13.6777    -0.6498    26.9845 H      65 HOH   0.0000 
195 H2     -14.9280    -0.0027    27.6315 H      65 HOH   0.0000 
196 O      -21.6421     0.7829    25.3056 O.3    66 HOH   0.0000 
197 H1     -20.6821     0.7829    25.3056 H      66 HOH   0.0000 
198 H2     -21.9324     1.4299    25.9527 H      66 HOH   0.0000 
199 O       -9.0953    22.2162    16.1605 O.3    67 HOH   0.0000 
200 H1      -8.1353    22.2162    16.1605 H      67 HOH   0.0000 
201 H2      -9.3856    22.8633    16.8076 H      67 HOH   0.0000 
202 O      -22.4912    26.2378    22.4341 O.3    68 HOH   0.0000 
203 H1     -21.5312    26.2378    22.4341 H      68 HOH   0.0000 
204 H2     -22.7815    26.8849    23.0812 H      68 HOH   0.0000 
205 O       -2.3585    30.5950    35.6663 O.3    69 HOH   0.0000 
206 H1      -1.3985    30.5950    35.6663 H      69 HOH   0.0000 
207 H2      -2.6488    31.2421    36.3134 H      69 HOH   0.0000 
208 O        5.8712    36.2748    41.4810 O.3    70 HOH   0.0000 
209 H1       6.8312    36.2748    41.4810 H      70 HOH   0.0000 
210 H2       5.5809    36.9219    42.1281 H      70 HOH   0.0000 
211 O      -19.9402    28.4736    33.7036 O.3    71 HOH   0.0000 
212 H1     -18.9802    28.4736    33.7036 H      71 HOH   0.0000 
213 H2     -20.2305    29.1206    34.3507 H      71 HOH   0.0000 
214 O       -8.8906    20.7307    13.8525 O.3    72 HOH   0.0000 
215 H1      -7.9306    20.7307    13.8525 H      72 HOH   0.0000 
216 H2      -9.1808    21.3777    14.4995 H      72 HOH   0.0000 
217 O       -1.7472    29.5827    46.3247 O.3    73 HOH   0.0000 
218 H1      -0.7872    29.5827    46.3247 H      73 HOH   0.0000 
219 H2      -2.0375    30.2298    46.9718 H      73 HOH   0.0000 
220 O        7.3071    37.7816    43.0898 O.3    74 HOH   0.0000 
221 H1       8.2671    37.7816    43.0898 H      74 HOH   0.0000 
222 H2       7.0168    38.4287    43.7369 H      74 HOH   0.0000 
223 O      -20.1520    14.9734    48.1517 O.3    75 HOH   0.0000 
224 H1     -19.1920    14.9734    48.1517 H      75 HOH   0.0000 
225 H2     -20.4423    15.6204    48.7987 H      75 HOH   0.0000 
226 O       -1.4502    33.4124    34.5554 O.3    76 HOH   0.0000 
227 H1      -0.4902    33.4124    34.5554 H      76 HOH   0.0000 
228 H2      -1.7405    34.0595    35.2025 H      76 HOH   0.0000 
229 O       -6.9426    22.5424    51.3570 O.3    77 HOH   0.0000 
230 H1      -5.9826    22.5424    51.3570 H      77 HOH   0.0000 
231 H2      -7.2328    23.1895    52.0041 H      77 HOH   0.0000 
232 O      -11.4305    23.6837    16.5535 O.3    78 HOH   0.0000 
233 H1     -10.4705    23.6837    16.5535 H      78 HOH   0.0000 
234 H2     -11.7208    24.3308    17.2005 H      78 HOH   0.0000 
235 O        0.0523     2.9017    17.1416 O.3    79 HOH   0.0000 
236 H1       1.0123     2.9017    17.1416 H      79 HOH   0.0000 
237 H2      -0.2380     3.5488    17.7886 H      79 HOH   0.0000 
238 O       -9.7120     2.5747    47.0625 O.3    80 HOH   0.0000 
239 H1      -8.7520     2.5747    47.0625 H      80 HOH   0.0000 
240 H2     -10.0023     3.2218    47.7096 H      80 HOH   0.0000 
241 O      -24.4149     2.1179    25.0306 O.3    81 HOH   0.0000 
242 H1     -23.4549     2.1179    25.0306 H      81 HOH   0.0000 
243 H2     -24.7052     2.7649    25.6776 H      81 HOH   0.0000 
244 O      -18.9556    21.9552    16.3305 O.3    82 HOH   0.0000 
245 H1     -17.9956    21.9552    16.3305 H      82 HOH   0.0000 
246 H2     -19.2458    22.6023    16.9776 H      82 HOH   0.0000 
247 O       -0.9686     6.6420    45.4973 O.3    83 HOH   0.0000 
248 H1      -0.0086     6.6420    45.4973 H      83 HOH   0.0000 
249 H2      -1.2589     7.2890    46.1444 H      83 HOH   0.0000 
250 O       -2.6356    -0.3630    15.1684 O.3    84 HOH   0.0000 
251 H1      -1.6756    -0.3630    15.1684 H      84 HOH   0.0000 
252 H2      -2.9259     0.2840    15.8155 H      84 HOH   0.0000 
253 O      -11.3286    11.2992     6.6755 O.3    85 HOH   0.0000 
254 H1     -10.3686    11.2992     6.6755 H      85 HOH   0.0000 
255 H2     -11.6189    11.9463     7.3225 H      85 HOH   0.0000 
256 O      -15.7842     0.7964    28.9068 O.3    86 HOH   0.0000 
257 H1     -14.8242     0.7964    28.9068 H      86 HOH   0.0000 
258 H2     -16.0744     1.4435    29.5538 H      86 HOH   0.0000 
259 O      -20.1465    27.0920    27.1109 O.3    87 HOH   0.0000 
260 H1     -19.1865    27.0920    27.1109 H      87 HOH   0.0000 
261 H2     -20.4368    27.7391    27.7579 H      87 HOH   0.0000 
262 O        1.3887    18.5565    26.8217 O.3    88 HOH  -0.8340 
263 H1       1.4111    18.9150    27.7089 H      88 HOH   0.4170 
264 H2       0.7380    19.0889    26.3641 H      88 HOH   0.4170 
265 O      -10.5040    28.7050    41.1959 O.3    89 HOH   0.0000 
266 H1      -9.5440    28.7050    41.1959 H      89 HOH   0.0000 
267 H2     -10.7943    29.3520    41.8429 H      89 HOH   0.0000 
268 O      -10.8319    20.5179    12.6422 O.3    90 HOH   0.0000 
269 H1      -9.8719    20.5179    12.6422 H      90 HOH   0.0000 
270 H2     -11.1222    21.1650    13.2893 H      90 HOH   0.0000 
271 O        3.1985    39.1191    31.7148 O.3    91 HOH   0.0000 
272 H1       4.1585    39.1191    31.7148 H      91 HOH   0.0000 
273 H2       2.9082    39.7661    32.3619 H      91 HOH   0.0000 
274 O      -25.3640    14.3360    25.0018 O.3    92 HOH   0.0000 
275 H1     -24.4040    14.3360    25.0018 H      92 HOH   0.0000 
276 H2     -25.6543    14.9831    25.6488 H      92 HOH   0.0000 
277 O       -4.2247    26.2893    45.9022 O.3    93 HOH   0.0000 
278 H1      -3.2647    26.2893    45.9022 H      93 HOH   0.0000 
279 H2      -4.5150    26.9363    46.5493 H      93 HOH   0.0000 
280 O       -1.8613    12.2438    44.6972 O.3    94 HOH   0.0000 
281 H1      -0.9013    12.2438    44.6972 H      94 HOH   0.0000 
282 H2      -2.1515    12.8909    45.3442 H      94 HOH   0.0000 
283 O        3.1655    10.6666    11.5438 O.3    95 HOH   0.0000 
284 H1       4.1255    10.6666    11.5438 H      95 HOH   0.0000 
285 H2       2.8752    11.3137    12.1908 H      95 HOH   0.0000 
286 O      -14.0245    16.5881     7.9392 O.3    96 HOH   0.0000 
287 H1     -13.0645    16.5881     7.9392 H      96 HOH   0.0000 
288 H2     -14.3147    17.2351     8.5862 H      96 HOH   0.0000 
289 O       -2.5812     9.2277    30.9445 O.3    97 HOH   0.0000 
290 H1      -1.6212     9.2277    30.9445 H      97 HOH   0.0000 
291 H2      -2.8714     9.8748    31.5916 H      97 HOH   0.0000 
292 O      -19.9175     9.8878    33.6163 O.3    98 HOH   0.0000 
293 H1     -18.9575     9.8878    33.6163 H      98 HOH   0.0000 
294 H2     -20.2078    10.5348    34.2633 H      98 HOH   0.0000 
295 O      -10.5223    26.5722    17.4250 O.3    99 HOH   0.0000 
296 H1      -9.5623    26.5722    17.4250 H      99 HOH   0.0000 
297 H2     -10.8126    27.2192    18.0720 H      99 HOH   0.0000 
298 O        1.6999    -6.7403    18.4427 O.3   100 HOH   0.0000 
299 H1       2.6599    -6.7403    18.4427 H     100 HOH   0.0000 
300 H2       1.4096    -6.0933    19.0898 H     100 HOH   0.0000 
301 O      -22.5253    11.5990    36.8919 O.3   101 HOH   0.0000 
302 H1     -21.5653    11.5990    36.8919 H     101 HOH   0.0000 
303 H2     -22.8156    12.2461    37.5390 H     101 HOH   0.0000 
304 O      -23.5252    14.6327    22.1661 O.3   102 HOH   0.0000 
305 H1     -22.5652    14.6327    22.1661 H     102 HOH   0.0000 
306 H2     -23.8155    15.2797    22.8132 H     102 HOH   0.0000 
307 O      -13.1757    21.9128    13.4366 O.3   103 HOH   0.0000 
308 H1     -12.2157    21.9128    13.4366 H     103 HOH   0.0000 
309 H2     -13.4660    22.5598    14.0836 H     103 HOH   0.0000 
310 O      -18.6786    19.5468    15.3529 O.3   104 HOH   0.0000 
311 H1     -17.7186    19.5468    15.3529 H     104 HOH   0.0000 
312 H2     -18.9689    20.1939    15.9999 H     104 HOH   0.0000 
313 O       -0.2087    12.7497    38.0901 O.3   105 HOH   0.0000 
314 H1       0.7513    12.7497    38.0901 H     105 HOH   0.0000 
315 H2      -0.4990    13.3968    38.7372 H     105 HOH   0.0000 
316 O      -15.0487    28.0626    40.8622 O.3   106 HOH   0.0000 
317 H1     -14.0887    28.0626    40.8622 H     106 HOH   0.0000 
318 H2     -15.3390    28.7097    41.5093 H     106 HOH   0.0000 
319 O      -23.8886    20.2101    21.4171 O.3   107 HOH   0.0000 
320 H1     -22.9286    20.2101    21.4171 H     107 HOH   0.0000 
321 H2     -24.1789    20.8571    22.0642 H     107 HOH   0.0000 
322 O       -4.7240    32.7427    17.8968 O.3   108 HOH   0.0000 
323 H1      -3.7640    32.7427    17.8968 H     108 HOH   0.0000 
324 H2      -5.0143    33.3898    18.5438 H     108 HOH   0.0000 
325 O       17.1170    33.0764    38.6752 O.3   109 HOH   0.0000 
326 H1      18.0770    33.0764    38.6752 H     109 HOH   0.0000 
327 H2      16.8268    33.7234    39.3223 H     109 HOH   0.0000 
328 O       -7.4272    21.4054     8.9216 O.3   110 HOH   0.0000 
329 H1      -6.4672    21.4054     8.9216 H     110 HOH   0.0000 
330 H2      -7.7175    22.0524     9.5686 H     110 HOH   0.0000 
331 O       -7.9584    -6.6187     9.7242 O.3   111 HOH   0.0000 
332 H1      -6.9984    -6.6187     9.7242 H     111 HOH   0.0000 
333 H2      -8.2487    -5.9717    10.3713 H     111 HOH   0.0000 
334 O      -23.1800    10.5661    48.2797 O.3   112 HOH   0.0000 
335 H1     -22.2200    10.5661    48.2797 H     112 HOH   0.0000 
336 H2     -23.4703    11.2132    48.9268 H     112 HOH   0.0000 
337 O       -9.2865    11.1661    13.0403 O.3   113 HOH   0.0000 
338 H1      -8.3265    11.1661    13.0403 H     113 HOH   0.0000 
339 H2      -9.5768    11.8132    13.6874 H     113 HOH   0.0000 
340 O       -3.9733     5.5186    43.1767 O.3   114 HOH   0.0000 
341 H1      -3.0133     5.5186    43.1767 H     114 HOH   0.0000 
342 H2      -4.2636     6.1657    43.8238 H     114 HOH   0.0000 
343 O       -4.9139    23.2387    14.5733 O.3   115 HOH   0.0000 
344 H1      -3.9539    23.2387    14.5733 H     115 HOH   0.0000 
345 H2      -5.2042    23.8857    15.2204 H     115 HOH   0.0000 
346 O       -1.2541     9.9282    38.3943 O.3   116 HOH   0.0000 
347 H1      -0.2941     9.9282    38.3943 H     116 HOH   0.0000 
348 H2      -1.5443    10.5752    39.0414 H     116 HOH   0.0000 
349 O        9.4030    32.8241    28.8955 O.3   117 HOH   0.0000 
350 H1      10.3630    32.8241    28.8955 H     117 HOH   0.0000 
351 H2       9.1127    33.4712    29.5425 H     117 HOH   0.0000 
352 O       -0.4462    14.3175    42.8604 O.3   118 HOH  -0.8340 
353 H1       0.1206    14.9550    43.2945 H     118 HOH   0.4170 
354 H2      -0.1868    13.4740    43.2312 H     118 HOH   0.4170 
355 O       19.0446    22.1564    33.3204 O.3   119 HOH   0.0000 
356 H1      20.0046    22.1564    33.3204 H     119 HOH   0.0000 
357 H2      18.7543    22.8035    33.9674 H     119 HOH   0.0000 
358 O        6.2814    36.1962    27.9862 O.3   120 HOH   0.0000 
359 H1       7.2414    36.1962    27.9862 H     120 HOH   0.0000 
360 H2       5.9911    36.8432    28.6333 H     120 HOH   0.0000 
361 O       -3.1458     3.5630    31.5497 O.3   121 HOH   0.0000 
362 H1      -2.1858     3.5630    31.5497 H     121 HOH   0.0000 
363 H2      -3.4360     4.2101    32.1968 H     121 HOH   0.0000 
364 O        0.0110     8.2133    39.2399 O.3   122 HOH   0.0000 
365 H1       0.9710     8.2133    39.2399 H     122 HOH   0.0000 
366 H2      -0.2793     8.8603    39.8869 H     122 HOH   0.0000 
367 O        5.1997    41.9636    34.7344 O.3   123 HOH   0.0000 
368 H1       6.1597    41.9636    34.7344 H     123 HOH   0.0000 
369 H2       4.9094    42.6107    35.3815 H     123 HOH   0.0000 
370 O      -22.5888    16.9486    22.3793 O.3   124 HOH   0.0000 
371 H1     -21.6288    16.9486    22.3793 H     124 HOH   0.0000 
372 H2     -22.8790    17.5957    23.0263 H     124 HOH   0.0000 
373 O      -14.4650    28.1090    23.3422 O.3   125 HOH   0.0000 
374 H1     -13.5050    28.1090    23.3422 H     125 HOH   0.0000 
375 H2     -14.7553    28.7560    23.9893 H     125 HOH   0.0000 
376 O       -8.4197    23.3540    23.1976 O.3   126 HOH   0.0000 
377 H1      -7.4597    23.3540    23.1976 H     126 HOH   0.0000 
378 H2      -8.7100    24.0011    23.8446 H     126 HOH   0.0000 
379 O        8.3506    13.9409    41.2358 O.3   127 HOH   0.0000 
380 H1       9.3106    13.9409    41.2358 H     127 HOH   0.0000 
381 H2       8.0603    14.5880    41.8829 H     127 HOH   0.0000 
382 O       11.7190    37.5269    44.1712 O.3   128 HOH   0.0000 
383 H1      12.6790    37.5269    44.1712 H     128 HOH   0.0000 
384 H2      11.4288    38.1740    44.8182 H     128 HOH   0.0000 
385 O      -15.2458    19.6575     7.8787 O.3   129 HOH   0.0000 
386 H1     -14.2858    19.6575     7.8787 H     129 HOH   0.0000 
387 H2     -15.5361    20.3045     8.5258 H     129 HOH   0.0000 
388 O       -9.0182    33.1103    37.8695 O.3   130 HOH   0.0000 
389 H1      -8.0582    33.1103    37.8695 H     130 HOH   0.0000 
390 H2      -9.3085    33.7574    38.5165 H     130 HOH   0.0000 
391 O      -14.0517    -4.1081    28.4007 O.3   131 HOH   0.0000 
392 H1     -13.0917    -4.1081    28.4007 H     131 HOH   0.0000 
393 H2     -14.3420    -3.4611    29.0478 H     131 HOH   0.0000 
394 O       -1.3614    15.6499    47.5929 O.3   132 HOH   0.0000 
395 H1      -0.4014    15.6499    47.5929 H     132 HOH   0.0000 
396 H2      -1.6517    16.2969    48.2399 H     132 HOH   0.0000 
397 O      -13.2241    22.9436    18.5969 O.3   133 HOH   0.0000 
398 H1     -12.2641    22.9436    18.5969 H     133 HOH   0.0000 
399 H2     -13.5144    23.5907    19.2440 H     133 HOH   0.0000 
400 O      -24.5904    23.4709    18.9697 O.3   134 HOH   0.0000 
401 H1     -23.6304    23.4709    18.9697 H     134 HOH   0.0000 
402 H2     -24.8807    24.1179    19.6168 H     134 HOH   0.0000 
403 O        1.0310    22.6809    22.0211 O.3   135 HOH  -0.8340 
404 H1       1.5797    22.0154    22.4362 H     135 HOH   0.4170 
405 H2       0.3963    22.9234    22.6954 H     135 HOH   0.4170 
406 O      -20.3437    16.3288    17.4424 O.3   136 HOH   0.0000 
407 H1     -19.3837    16.3288    17.4424 H     136 HOH   0.0000 
408 H2     -20.6339    16.9759    18.0895 H     136 HOH   0.0000 
409 O       15.4226    46.2269    42.5921 O.3   137 HOH   0.0000 
410 H1      16.3826    46.2269    42.5921 H     137 HOH   0.0000 
411 H2      15.1323    46.8740    43.2391 H     137 HOH   0.0000 
412 O      -14.5275     1.3954    38.4390 O.3   138 HOH   0.0000 
413 H1     -13.5675     1.3954    38.4390 H     138 HOH   0.0000 
414 H2     -14.8178     2.0425    39.0860 H     138 HOH   0.0000 
415 O        2.1567     6.5633    38.2606 O.3   139 HOH   0.0000 
416 H1       3.1167     6.5633    38.2606 H     139 HOH   0.0000 
417 H2       1.8664     7.2103    38.9076 H     139 HOH   0.0000 
418 O       10.2791    40.1097    39.8473 O.3   140 HOH   0.0000 
419 H1      11.2391    40.1097    39.8473 H     140 HOH   0.0000 
420 H2       9.9888    40.7567    40.4944 H     140 HOH   0.0000 
421 O      -19.8460    15.8158     9.3025 O.3   141 HOH   0.0000 
422 H1     -18.8860    15.8158     9.3025 H     141 HOH   0.0000 
423 H2     -20.1362    16.4628     9.9496 H     141 HOH   0.0000 
424 O       -2.0370     4.6766    35.8599 O.3   142 HOH   0.0000 
425 H1      -1.0770     4.6766    35.8599 H     142 HOH   0.0000 
426 H2      -2.3273     5.3236    36.5069 H     142 HOH   0.0000 
427 O      -10.3882    15.2196    53.1593 O.3   143 HOH   0.0000 
428 H1      -9.4282    15.2196    53.1593 H     143 HOH   0.0000 
429 H2     -10.6785    15.8667    53.8063 H     143 HOH   0.0000 
430 O       -0.1175     8.4914    35.9680 O.3   144 HOH   0.0000 
431 H1       0.8425     8.4914    35.9680 H     144 HOH   0.0000 
432 H2      -0.4078     9.1385    36.6150 H     144 HOH   0.0000 
433 O       10.8049    29.5474    23.7968 O.3   145 HOH   0.0000 
434 H1      11.7649    29.5474    23.7968 H     145 HOH   0.0000 
435 H2      10.5147    30.1944    24.4439 H     145 HOH   0.0000 
436 O        9.5648    13.4980    37.7623 O.3   146 HOH   0.0000 
437 H1      10.5248    13.4980    37.7623 H     146 HOH   0.0000 
438 H2       9.2746    14.1451    38.4094 H     146 HOH   0.0000 
439 O       21.8513    21.7476    32.7462 O.3   147 HOH   0.0000 
440 H1      22.8113    21.7476    32.7462 H     147 HOH   0.0000 
441 H2      21.5610    22.3947    33.3932 H     147 HOH   0.0000 
442 O      -16.3293    29.7735    23.9316 O.3   148 HOH   0.0000 
443 H1     -15.3693    29.7735    23.9316 H     148 HOH   0.0000 
444 H2     -16.6195    30.4205    24.5786 H     148 HOH   0.0000 
445 O      -26.4409     5.7843    35.7813 O.3   149 HOH   0.0000 
446 H1     -25.4809     5.7843    35.7813 H     149 HOH   0.0000 
447 H2     -26.7312     6.4314    36.4284 H     149 HOH   0.0000 
448 O      -29.0428     7.0779    31.7694 O.3   150 HOH   0.0000 
449 H1     -28.0828     7.0779    31.7694 H     150 HOH   0.0000 
450 H2     -29.3331     7.7249    32.4164 H     150 HOH   0.0000 
451 O        0.6835    21.2426    27.6546 O.3   151 HOH  -0.8340 
452 H1       1.0654    20.6441    28.2966 H     151 HOH   0.4170 
453 H2       0.0795    20.6986    27.1491 H     151 HOH   0.4170 
454 O       -0.9481    26.0913    21.5979 O.3   152 HOH  -0.8340 
455 H1      -0.1929    25.8124    22.1156 H     152 HOH   0.4170 
456 H2      -0.5724    26.4073    20.7762 H     152 HOH   0.4170 
457 O      -19.8494     6.7850    17.1504 O.3   153 HOH   0.0000 
458 H1     -18.8894     6.7850    17.1504 H     153 HOH   0.0000 
459 H2     -20.1397     7.4320    17.7975 H     153 HOH   0.0000 
460 O        0.3815    26.3004    52.1860 O.3   154 HOH   0.0000 
461 H1       1.3415    26.3004    52.1860 H     154 HOH   0.0000 
462 H2       0.0912    26.9474    52.8330 H     154 HOH   0.0000 
463 O       -5.0136    -7.3539    22.4604 O.3   155 HOH   0.0000 
464 H1      -4.0536    -7.3539    22.4604 H     155 HOH   0.0000 
465 H2      -5.3039    -6.7069    23.1075 H     155 HOH   0.0000 
466 O      -16.7470    22.4295    15.9731 O.3   156 HOH   0.0000 
467 H1     -15.7870    22.4295    15.9731 H     156 HOH   0.0000 
468 H2     -17.0373    23.0765    16.6202 H     156 HOH   0.0000 
469 O      -18.9015    13.1059    34.5650 O.3   157 HOH   0.0000 
470 H1     -17.9415    13.1059    34.5650 H     157 HOH   0.0000 
471 H2     -19.1917    13.7529    35.2120 H     157 HOH   0.0000 
472 O      -18.3670     8.9203    54.5711 O.3   158 HOH   0.0000 
473 H1     -17.4070     8.9203    54.5711 H     158 HOH   0.0000 
474 H2     -18.6573     9.5674    55.2181 H     158 HOH   0.0000 
475 O       11.6887    35.7967    30.9604 O.3   159 HOH   0.0000 
476 H1      12.6487    35.7967    30.9604 H     159 HOH   0.0000 
477 H2      11.3984    36.4437    31.6075 H     159 HOH   0.0000 
478 O      -16.9697     0.2669    33.8908 O.3   160 HOH   0.0000 
479 H1     -16.0097     0.2669    33.8908 H     160 HOH   0.0000 
480 H2     -17.2600     0.9139    34.5379 H     160 HOH   0.0000 
481 O      -17.7171     6.6104    16.1595 O.3   161 HOH   0.0000 
482 H1     -16.7571     6.6104    16.1595 H     161 HOH   0.0000 
483 H2     -18.0074     7.2575    16.8066 H     161 HOH   0.0000 
484 O      -25.7805     1.2852    26.8621 O.3   162 HOH   0.0000 
485 H1     -24.8205     1.2852    26.8621 H     162 HOH   0.0000 
486 H2     -26.0708     1.9323    27.5091 H     162 HOH   0.0000 
487 O       -8.8143    -5.3835    13.8056 O.3   163 HOH   0.0000 
488 H1      -7.8543    -5.3835    13.8056 H     163 HOH   0.0000 
489 H2      -9.1046    -4.7365    14.4526 H     163 HOH   0.0000 
490 O       -2.6707    33.0672    19.7070 O.3   164 HOH   0.0000 
491 H1      -1.7107    33.0672    19.7070 H     164 HOH   0.0000 
492 H2      -2.9610    33.7143    20.3541 H     164 HOH   0.0000 
493 O        1.9793    12.0157    22.5917 O.3   165 HOH   0.0000 
494 H1       2.9393    12.0157    22.5917 H     165 HOH   0.0000 
495 H2       1.6890    12.6627    23.2388 H     165 HOH   0.0000 
496 O      -20.3136     0.1822    22.6642 O.3   166 HOH   0.0000 
497 H1     -19.3536     0.1822    22.6642 H     166 HOH   0.0000 
498 H2     -20.6039     0.8293    23.3112 H     166 HOH   0.0000 
499 O      -18.6172     1.1918    18.3147 O.3   167 HOH   0.0000 
500 H1     -17.6572     1.1918    18.3147 H     167 HOH   0.0000 
501 H2     -18.9074     1.8389    18.9617 H     167 HOH   0.0000 
502 O        4.6219    22.6132    52.5106 O.3   168 HOH   0.0000 
503 H1       5.5819    22.6132    52.5106 H     168 HOH   0.0000 
504 H2       4.3316    23.2602    53.1576 H     168 HOH   0.0000 
505 O       -5.8821     9.2348    11.2200 O.3   169 HOH   0.0000 
506 H1      -4.9221     9.2348    11.2200 H     169 HOH   0.0000 
507 H2      -6.1723     9.8819    11.8670 H     169 HOH   0.0000 
508 O       -2.4912    30.8510    20.2855 O.3   170 HOH   0.0000 
509 H1      -1.5312    30.8510    20.2855 H     170 HOH   0.0000 
510 H2      -2.7815    31.4980    20.9326 H     170 HOH   0.0000 
511 O       -4.1967    33.4733    22.0613 O.3   171 HOH   0.0000 
512 H1      -3.2367    33.4733    22.0613 H     171 HOH   0.0000 
513 H2      -4.4870    34.1204    22.7083 H     171 HOH   0.0000 
514 O        7.8197    22.4608    28.8387 O.3   172 HOH  -0.8340 
515 H1       7.4517    21.6695    28.4454 H     172 HOH   0.4170 
516 H2       7.1824    22.7160    29.5057 H     172 HOH   0.4170 
517 O       23.4990    28.0501    34.7946 O.3   173 HOH   0.0000 
518 H1      24.4590    28.0501    34.7946 H     173 HOH   0.0000 
519 H2      23.2087    28.6971    35.4416 H     173 HOH   0.0000 
520 O       -7.7867     9.9664     8.1386 O.3   174 HOH   0.0000 
521 H1      -6.8267     9.9664     8.1386 H     174 HOH   0.0000 
522 H2      -8.0770    10.6134     8.7856 H     174 HOH   0.0000 
523 O        0.8027    16.0533    44.3004 O.3   175 HOH  -0.8340 
524 H1       0.1621    16.7637    44.2656 H     175 HOH   0.4170 
525 H2       0.9802    15.9357    45.2337 H     175 HOH   0.4170 
526 O      -15.3714    28.0393    37.7230 O.3   176 HOH   0.0000 
527 H1     -14.4114    28.0393    37.7230 H     176 HOH   0.0000 
528 H2     -15.6617    28.6864    38.3700 H     176 HOH   0.0000 
529 O      -21.1619     7.5957    40.7563 O.3   177 HOH   0.0000 
530 H1     -20.2019     7.5957    40.7563 H     177 HOH   0.0000 
531 H2     -21.4522     8.2427    41.4033 H     177 HOH   0.0000 
532 O       -2.7619     3.1272    28.8688 O.3   178 HOH   0.0000 
533 H1      -1.8019     3.1272    28.8688 H     178 HOH   0.0000 
534 H2      -3.0522     3.7742    29.5159 H     178 HOH   0.0000 
535 O       22.5584    23.9972    35.4605 O.3   179 HOH   0.0000 
536 H1      23.5184    23.9972    35.4605 H     179 HOH   0.0000 
537 H2      22.2682    24.6443    36.1076 H     179 HOH   0.0000 
538 O      -22.3099     9.2845    37.4729 O.3   180 HOH   0.0000 
539 H1     -21.3499     9.2845    37.4729 H     180 HOH   0.0000 
540 H2     -22.6002     9.9315    38.1200 H     180 HOH   0.0000 
541 O      -18.7925    26.0623    19.4101 O.3   181 HOH   0.0000 
542 H1     -17.8325    26.0623    19.4101 H     181 HOH   0.0000 
543 H2     -19.0828    26.7093    20.0572 H     181 HOH   0.0000 
544 O       12.7778    22.6809    23.5921 O.3   182 HOH   0.0000 
545 H1      13.7378    22.6809    23.5921 H     182 HOH   0.0000 
546 H2      12.4875    23.3279    24.2391 H     182 HOH   0.0000 
547 O       24.3341    25.6704    35.4575 O.3   183 HOH   0.0000 
548 H1      25.2941    25.6704    35.4575 H     183 HOH   0.0000 
549 H2      24.0439    26.3174    36.1045 H     183 HOH   0.0000 
550 O       15.9519    37.8238    39.5499 O.3   184 HOH   0.0000 
551 H1      16.9119    37.8238    39.5499 H     184 HOH   0.0000 
552 H2      15.6616    38.4708    40.1970 H     184 HOH   0.0000 
553 O       -6.0966    22.7515    12.6952 O.3   185 HOH   0.0000 
554 H1      -5.1366    22.7515    12.6952 H     185 HOH   0.0000 
555 H2      -6.3869    23.3985    13.3422 H     185 HOH   0.0000 
556 O      -19.3049    18.7032    50.4397 O.3   186 HOH   0.0000 
557 H1     -18.3449    18.7032    50.4397 H     186 HOH   0.0000 
558 H2     -19.5952    19.3503    51.0868 H     186 HOH   0.0000 
559 O       -2.0888     9.0514    47.0460 O.3   187 HOH   0.0000 
560 H1      -1.1288     9.0514    47.0460 H     187 HOH   0.0000 
561 H2      -2.3791     9.6984    47.6930 H     187 HOH   0.0000 
562 O       15.9429    34.4512    48.0376 O.3   188 HOH   0.0000 
563 H1      16.9029    34.4512    48.0376 H     188 HOH   0.0000 
564 H2      15.6526    35.0982    48.6846 H     188 HOH   0.0000 
565 O        4.3494    34.4497    55.6953 O.3   189 HOH   0.0000 
566 H1       5.3094    34.4497    55.6953 H     189 HOH   0.0000 
567 H2       4.0591    35.0968    56.3423 H     189 HOH   0.0000 
568 O        9.3505    32.1729    24.7861 O.3   190 HOH   0.0000 
569 H1      10.3105    32.1729    24.7861 H     190 HOH   0.0000 
570 H2       9.0602    32.8200    25.4331 H     190 HOH   0.0000 
571 O      -10.7001    15.5328     8.2132 O.3   191 HOH   0.0000 
572 H1      -9.7401    15.5328     8.2132 H     191 HOH   0.0000 
573 H2     -10.9904    16.1799     8.8602 H     191 HOH   0.0000 
574 O        3.1741     8.4838    23.5008 O.3   192 HOH   0.0000 
575 H1       4.1341     8.4838    23.5008 H     192 HOH   0.0000 
576 H2       2.8838     9.1308    24.1479 H     192 HOH   0.0000 
577 O      -11.2034    -3.6971    26.6988 O.3   193 HOH   0.0000 
578 H1     -10.2434    -3.6971    26.6988 H     193 HOH   0.0000 
579 H2     -11.4937    -3.0501    27.3459 H     193 HOH   0.0000 
580 O       -2.8465    -3.7164    14.4977 O.3   194 HOH   0.0000 
581 H1      -1.8865    -3.7164    14.4977 H     194 HOH   0.0000 
582 H2      -3.1368    -3.0694    15.1448 H     194 HOH   0.0000 
583 O      -21.5282    11.2846    17.7473 O.3   195 HOH   0.0000 
584 H1     -20.5682    11.2846    17.7473 H     195 HOH   0.0000 
585 H2     -21.8184    11.9316    18.3943 H     195 HOH   0.0000 
@<TRIPOS>BOND
  1   1   2  1   
  2   1   3  1   
  3   4   5  1   
  4   4   6  1   
  5   7   8  1   
  6   7   9  1   
  7  10  11  1   
  8  10  12  1   
  9  13  14  1   
 10  13  15  1   
 11  16  17  1   
 12  16  18  1   
 13  19  20  1   
 14  19  21  1   
 15  22  23  1   
 16  22  24  1   
 17  25  26  1   
 18  25  27  1   
 19  28  29  1   
 20  28  30  1   
 21  31  32  1   
 22  31  33  1   
 23  34  35  1   
 24  34  36  1   
 25  37  38  1   
 26  37  39  1   
 27  40  41  1   
 28  40  42  1   
 29  43  44  1   
 30  43  45  1   
 31  46  47  1   
 32  46  48  1   
 33  49  50  1   
 34  49  51  1   
 35  52  53  1   
 36  52  54  1   
 37  55  56  1   
 38  55  57  1   
 39  58  59  1   
 40  58  60  1   
 41  61  62  1   
 42  61  63  1   
 43  64  65  1   
 44  64  66  1   
 45  67  68  1   
 46  67  69  1   
 47  70  71  1   
 48  70  72  1   
 49  73  74  1   
 50  73  75  1   
 51  76  77  1   
 52  76  78  1   
 53  79  80  1   
 54  79  81  1   
 55  82  83  1   
 56  82  84  1   
 57  85  86  1   
 58  85  87  1   
 59  88  89  1   
 60  88  90  1   
 61  91  92  1   
 62  91  93  1   
 63  94  95  1   
 64  94  96  1   
 65  97  98  1   
 66  97  99  1   
 67 100 101  1   
 68 100 102  1   
 69 103 104  1   
 70 103 105  1   
 71 106 107  1   
 72 106 108  1   
 73 109 110  1   
 74 109 111  1   
 75 112 113  1   
 76 112 114  1   
 77 115 116  1   
 78 115 117  1   
 79 118 119  1   
 80 118 120  1   
 81 121 122  1   
 82 121 123  1   
 83 124 125  1   
 84 124 126  1   
 85 127 128  1   
 86 127 129  1   
 87 130 131  1   
 88 130 132  1   
 89 133 134  1   
 90 133 135  1   
 91 136 137  1   
 92 136 138  1   
 93 139 140  1   
 94 139 141  1   
 95 142 143  1   
 96 142 144  1   
 97 145 146  1   
 98 145 147  1   
 99 148 149  1   
100 148 150  1   
101 151 152  1   
102 151 153  1   
103 154 155  1   
104 154 156  1   
105 157 158  1   
106 157 159  1   
107 160 161  1   
108 160 162  1   
109 163 164  1   
110 163 165  1   
111 166 167  1   
112 166 168  1   
113 169 170  1   
114 169 171  1   
115 172 173  1   
116 172 174  1   
117 175 176  1   
118 175 177  1   
119 178 179  1   
120 178 180  1   
121 181 182  1   
122 181 183  1   
123 184 185  1   
124 184 186  1   
125 187 188  1   
126 187 189  1   
127 190 191  1   
128 190 192  1   
129 193 194  1   
130 193 195  1   
131 196 197  1   
132 196 198  1   
133 199 200  1   
134 199 201  1   
135 202 203  1   
136 202 204  1   
137 205 206  1   
138 205 207  1   
139 208 209  1   
140 208 210  1   
141 211 212  1   
142 211 213  1   
143 214 215  1   
144 214 216  1   
145 217 218  1   
146 217 219  1   
147 220 221  1   
148 220 222  1   
149 223 224  1   
150 223 225  1   
151 226 227  1   
152 226 228  1   
153 229 230  1   
154 229 231  1   
155 232 233  1   
156 232 234  1   
157 235 236  1   
158 235 237  1   
159 238 239  1   
160 238 240  1   
161 241 242  1   
162 241 243  1   
163 244 245  1   
164 244 246  1   
165 247 248  1   
166 247 249  1   
167 250 251  1   
168 250 252  1   
169 253 254  1   
170 253 255  1   
171 256 257  1   
172 256 258  1   
173 259 260  1   
174 259 261  1   
175 262 263  1   
176 262 264  1   
177 265 266  1   
178 265 267  1   
179 268 269  1   
180 268 270  1   
181 271 272  1   
182 271 273  1   
183 274 275  1   
184 274 276  1   
185 277 278  1   
186 277 279  1   
187 280 281  1   
188 280 282  1   
189 283 284  1   
190 283 285  1   
191 286 287  1   
192 286 288  1   
193 289 290  1   
194 289 291  1   
195 292 293  1   
196 292 294  1   
197 295 296  1   
198 295 297  1   
199 298 299  1   
200 298 300  1   
201 301 302  1   
202 301 303  1   
203 304 305  1   
204 304 306  1   
205 307 308  1   
206 307 309  1   
207 310 311  1   
208 310 312  1   
209 313 314  1   
210 313 315  1   
211 316 317  1   
212 316 318  1   
213 319 320  1   
214 319 321  1   
215 322 323  1   
216 322 324  1   
217 325 326  1   
218 325 327  1   
219 328 329  1   
220 328 330  1   
221 331 332  1   
222 331 333  1   
223 334 335  1   
224 334 336  1   
225 337 338  1   
226 337 339  1   
227 340 341  1   
228 340 342  1   
229 343 344  1   
230 343 345  1   
231 346 347  1   
232 346 348  1   
233 349 350  1   
234 349 351  1   
235 352 353  1   
236 352 354  1   
237 355 356  1   
238 355 357  1   
239 358 359  1   
240 358 360  1   
241 361 362  1   
242 361 363  1   
243 364 365  1   
244 364 366  1   
245 367 368  1   
246 367 369  1   
247 370 371  1   
248 370 372  1   
249 373 374  1   
250 373 375  1   
251 376 377  1   
252 376 378  1   
253 379 380  1   
254 379 381  1   
255 382 383  1   
256 382 384  1   
257 385 386  1   
258 385 387  1   
259 388 389  1   
260 388 390  1   
261 391 392  1   
262 391 393  1   
263 394 395  1   
264 394 396  1   
265 397 398  1   
266 397 399  1   
267 400 401  1   
268 400 402  1   
269 403 404  1   
270 403 405  1   
271 406 407  1   
272 406 408  1   
273 409 410  1   
274 409 411  1   
275 412 413  1   
276 412 414  1   
277 415 416  1   
278 415 417  1   
279 418 419  1   
280 418 420  1   
281 421 422  1   
282 421 423  1   
283 424 425  1   
284 424 426  1   
285 427 428  1   
286 427 429  1   
287 430 431  1   
288 430 432  1   
289 433 434  1   
290 433 435  1   
291 436 437  1   
292 436 438  1   
293 439 440  1   
294 439 441  1   
295 442 443  1   
296 442 444  1   
297 445 446  1   
298 445 447  1   
299 448 449  1   
300 448 450  1   
301 451 452  1   
302 451 453  1   
303 454 455  1   
304 454 456  1   
305 457 458  1   
306 457 459  1   
307 460 461  1   
308 460 462  1   
309 463 464  1   
310 463 465  1   
311 466 467  1   
312 466 468  1   
313 469 470  1   
314 469 471  1   
315 472 473  1   
316 472 474  1   
317 475 476  1   
318 475 477  1   
319 478 479  1   
320 478 480  1   
321 481 482  1   
322 481 483  1   
323 484 485  1   
324 484 486  1   
325 487 488  1   
326 487 489  1   
327 490 491  1   
328 490 492  1   
329 493 494  1   
330 493 495  1   
331 496 497  1   
332 496 498  1   
333 499 500  1   
334 499 501  1   
335 502 503  1   
336 502 504  1   
337 505 506  1   
338 505 507  1   
339 508 509  1   
340 508 510  1   
341 511 512  1   
342 511 513  1   
343 514 515  1   
344 514 516  1   
345 517 518  1   
346 517 519  1   
347 520 521  1   
348 520 522  1   
349 523 524  1   
350 523 525  1   
351 526 527  1   
352 526 528  1   
353 529 530  1   
354 529 531  1   
355 532 533  1   
356 532 534  1   
357 535 536  1   
358 535 537  1   
359 538 539  1   
360 538 540  1   
361 541 542  1   
362 541 543  1   
363 544 545  1   
364 544 546  1   
365 547 548  1   
366 547 549  1   
367 550 551  1   
368 550 552  1   
369 553 554  1   
370 553 555  1   
371 556 557  1   
372 556 558  1   
373 559 560  1   
374 559 561  1   
375 562 563  1   
376 562 564  1   
377 565 566  1   
378 565 567  1   
379 568 569  1   
380 568 570  1   
381 571 572  1   
382 571 573  1   
383 574 575  1   
384 574 576  1   
385 577 578  1   
386 577 579  1   
387 580 581  1   
388 580 582  1   
389 583 584  1   
390 583 585  1   
@<TRIPOS>SUBSTRUCTURE
  1 HOH   1 GROUP 4 B **** 0
  2 HOH   4 GROUP 4 B **** 0
  3 HOH   7 GROUP 4 B **** 0
  4 HOH  10 GROUP 4 B **** 0
  5 HOH  13 GROUP 4 B **** 0
  6 HOH  16 GROUP 4 B **** 0
  7 HOH  19 GROUP 4 B **** 0
  8 HOH  22 GROUP 4 B **** 0
  9 HOH  25 GROUP 4 B **** 0
 10 HOH  28 GROUP 4 B **** 0
 11 HOH  31 GROUP 4 B **** 0
 12 HOH  34 GROUP 4 B **** 0
 13 HOH  37 GROUP 4 B **** 0
 14 HOH  40 GROUP 4 B **** 0
 15 HOH  43 GROUP 4 B **** 0
 16 HOH  46 GROUP 4 B **** 0
 17 HOH  49 GROUP 4 B **** 0
 18 HOH  52 GROUP 4 B **** 0
 19 HOH  55 GROUP 4 B **** 0
 20 HOH  58 GROUP 4 B **** 0
 21 HOH  61 GROUP 4 B **** 0
 22 HOH  64 GROUP 4 B **** 0
 23 HOH  67 GROUP 4 B **** 0
 24 HOH  70 GROUP 4 B **** 0
 25 HOH  73 GROUP 4 B **** 0
 26 HOH  76 GROUP 4 B **** 0
 27 HOH  79 GROUP 4 B **** 0
 28 HOH  82 GROUP 4 B **** 0
 29 HOH  85 GROUP 4 B **** 0
 30 HOH  88 GROUP 4 B **** 0
 31 HOH  91 GROUP 4 B **** 0
 32 HOH  94 GROUP 4 B **** 0
 33 HOH  97 GROUP 4 B **** 0
 34 HOH 100 GROUP 4 B **** 0
 35 HOH 103 GROUP 4 B **** 0
 36 HOH 106 GROUP 4 B **** 0
 37 HOH 109 GROUP 4 B **** 0
 38 HOH 112 GROUP 4 B **** 0
 39 HOH 115 GROUP 4 B **** 0
 40 HOH 118 GROUP 4 B **** 0
 41 HOH 121 GROUP 4 B **** 0
 42 HOH 124 GROUP 4 B **** 0
 43 HOH 127 GROUP 4 B **** 0
 44 HOH 130 GROUP 4 B **** 0
 45 HOH 133 GROUP 4 B **** 0
 46 HOH 136 GROUP 4 B **** 0
 47 HOH 139 GROUP 4 B **** 0
 48 HOH 142 GROUP 4 B **** 0
 49 HOH 145 GROUP 4 B **** 0
 50 HOH 148 GROUP 4 B **** 0
 51 HOH 151 GROUP 4 B **** 0
 52 HOH 154 GROUP 4 B **** 0
 53 HOH 157 GROUP 4 B **** 0
 54 HOH 160 GROUP 4 B **** 0
 55 HOH 163 GROUP 4 B **** 0
 56 HOH 166 GROUP 4 B **** 0
 57 HOH 169 GROUP 4 B **** 0
 58 HOH 172 GROUP 4 B **** 0
 59 HOH 175 GROUP 4 B **** 0
 60 HOH 178 GROUP 4 B **** 0
 61 HOH 181 GROUP 4 B **** 0
 62 HOH 184 GROUP 4 B **** 0
 63 HOH 187 GROUP 4 B **** 0
 64 HOH 190 GROUP 4 B **** 0
 65 HOH 193 GROUP 4 B **** 0
 66 HOH 196 GROUP 4 B **** 0
 67 HOH 199 GROUP 4 B **** 0
 68 HOH 202 GROUP 4 B **** 0
 69 HOH 205 GROUP 4 B **** 0
 70 HOH 208 GROUP 4 B **** 0
 71 HOH 211 GROUP 4 B **** 0
 72 HOH 214 GROUP 4 B **** 0
 73 HOH 217 GROUP 4 B **** 0
 74 HOH 220 GROUP 4 B **** 0
 75 HOH 223 GROUP 4 B **** 0
 76 HOH 226 GROUP 4 B **** 0
 77 HOH 229 GROUP 4 B **** 0
 78 HOH 232 GROUP 4 B **** 0
 79 HOH 235 GROUP 4 B **** 0
 80 HOH 238 GROUP 4 B **** 0
 81 HOH 241 GROUP 4 B **** 0
 82 HOH 244 GROUP 4 B **** 0
 83 HOH 247 GROUP 4 B **** 0
 84 HOH 250 GROUP 4 B **** 0
 85 HOH 253 GROUP 4 B **** 0
 86 HOH 256 GROUP 4 B **** 0
 87 HOH 259 GROUP 4 B **** 0
 88 HOH 262 GROUP 4 B **** 0
 89 HOH 265 GROUP 4 B **** 0
 90 HOH 268 GROUP 4 B **** 0
 91 HOH 271 GROUP 4 B **** 0
 92 HOH 274 GROUP 4 B **** 0
 93 HOH 277 GROUP 4 B **** 0
 94 HOH 280 GROUP 4 B **** 0
 95 HOH 283 GROUP 4 B **** 0
 96 HOH 286 GROUP 4 B **** 0
 97 HOH 289 GROUP 4 B **** 0
 98 HOH 292 GROUP 4 B **** 0
 99 HOH 295 GROUP 4 B **** 0
100 HOH 298 GROUP 4 B **** 0
101 HOH 301 GROUP 4 B **** 0
102 HOH 304 GROUP 4 B **** 0
103 HOH 307 GROUP 4 B **** 0
104 HOH 310 GROUP 4 B **** 0
105 HOH 313 GROUP 4 B **** 0
106 HOH 316 GROUP 4 B **** 0
107 HOH 319 GROUP 4 B **** 0
108 HOH 322 GROUP 4 B **** 0
109 HOH 325 GROUP 4 B **** 0
110 HOH 328 GROUP 4 B **** 0
111 HOH 331 GROUP 4 B **** 0
112 HOH 334 GROUP 4 B **** 0
113 HOH 337 GROUP 4 B **** 0
114 HOH 340 GROUP 4 B **** 0
115 HOH 343 GROUP 4 B **** 0
116 HOH 346 GROUP 4 B **** 0
117 HOH 349 GROUP 4 B **** 0
118 HOH 352 GROUP 4 B **** 0
119 HOH 355 GROUP 4 B **** 0
120 HOH 358 GROUP 4 B **** 0
121 HOH 361 GROUP 4 B **** 0
122 HOH 364 GROUP 4 B **** 0
123 HOH 367 GROUP 4 B **** 0
124 HOH 370 GROUP 4 B **** 0
125 HOH 373 GROUP 4 B **** 0
126 HOH 376 GROUP 4 B **** 0
127 HOH 379 GROUP 4 B **** 0
128 HOH 382 GROUP 4 B **** 0
129 HOH 385 GROUP 4 B **** 0
130 HOH 388 GROUP 4 B **** 0
131 HOH 391 GROUP 4 B **** 0
132 HOH 394 GROUP 4 B **** 0
133 HOH 397 GROUP 4 B **** 0
134 HOH 400 GROUP 4 B **** 0
135 HOH 403 GROUP 4 B **** 0
136 HOH 406 GROUP 4 B **** 0
137 HOH 409 GROUP 4 B **** 0
138 HOH 412 GROUP 4 B **** 0
139 HOH 415 GROUP 4 B **** 0
140 HOH 418 GROUP 4 B **** 0
141 HOH 421 GROUP 4 B **** 0
142 HOH 424 GROUP 4 B **** 0
143 HOH 427 GROUP 4 B **** 0
144 HOH 430 GROUP 4 B **** 0
145 HOH 433 GROUP 4 B **** 0
146 HOH 436 GROUP 4 B **** 0
147 HOH 439 GROUP 4 B **** 0
148 HOH 442 GROUP 4 B **** 0
149 HOH 445 GROUP 4 B **** 0
150 HOH 448 GROUP 4 B **** 0
151 HOH 451 GROUP 4 B **** 0
152 HOH 454 GROUP 4 B **** 0
153 HOH 457 GROUP 4 B **** 0
154 HOH 460 GROUP 4 B **** 0
155 HOH 463 GROUP 4 B **** 0
156 HOH 466 GROUP 4 B **** 0
157 HOH 469 GROUP 4 B **** 0
158 HOH 472 GROUP 4 B **** 0
159 HOH 475 GROUP 4 B **** 0
160 HOH 478 GROUP 4 B **** 0
161 HOH 481 GROUP 4 B **** 0
162 HOH 484 GROUP 4 B **** 0
163 HOH 487 GROUP 4 B **** 0
164 HOH 490 GROUP 4 B **** 0
165 HOH 493 GROUP 4 B **** 0
166 HOH 496 GROUP 4 B **** 0
167 HOH 499 GROUP 4 B **** 0
168 HOH 502 GROUP 4 B **** 0
169 HOH 505 GROUP 4 B **** 0
170 HOH 508 GROUP 4 B **** 0
171 HOH 511 GROUP 4 B **** 0
172 HOH 514 GROUP 4 B **** 0
173 HOH 517 GROUP 4 B **** 0
174 HOH 520 GROUP 4 B **** 0
175 HOH 523 GROUP 4 B **** 0
176 HOH 526 GROUP 4 B **** 0
177 HOH 529 GROUP 4 B **** 0
178 HOH 532 GROUP 4 B **** 0
179 HOH 535 GROUP 4 B **** 0
180 HOH 538 GROUP 4 B **** 0
181 HOH 541 GROUP 4 B **** 0
182 HOH 544 GROUP 4 B **** 0
183 HOH 547 GROUP 4 B **** 0
184 HOH 550 GROUP 4 B **** 0
185 HOH 553 GROUP 4 B **** 0
186 HOH 556 GROUP 4 B **** 0
187 HOH 559 GROUP 4 B **** 0
188 HOH 562 GROUP 4 B **** 0
189 HOH 565 GROUP 4 B **** 0
190 HOH 568 GROUP 4 B **** 0
191 HOH 571 GROUP 4 B **** 0
192 HOH 574 GROUP 4 B **** 0
193 HOH 577 GROUP 4 B **** 0
194 HOH 580 GROUP 4 B **** 0
195 HOH 583 GROUP 4 B **** 0

# MOE 2012.10 (io_trps.svl 2012.10)
