@<TRIPOS>MOLECULE
3pyy.B
38 41 1 0 0 
SMALL
USER_CHARGES


@<TRIPOS>ATOM
  1 C1     -27.3360    10.5250    37.0539 C.ar  1 Q3YY  -0.1500 
  2 H1     -28.3645    10.7983    37.2378 H     1 Q3YY   0.1500 
  3 C2     -26.9993     9.1956    36.9238 C.ar  1 Q3YY  -0.1500 
  4 H2     -27.7609     8.4341    37.0037 H     1 Q3YY   0.1500 
  5 C3     -26.3822    11.5073    36.9531 C.ar  1 Q3YY  -0.1500 
  6 H3     -26.6616    12.5451    37.0591 H     1 Q3YY   0.1500 
  7 C4     -20.2498    11.8499    35.2105 C.ar  1 Q3YY  -0.1500 
  8 H4     -20.9837    12.3786    35.8008 H     1 Q3YY   0.1500 
  9 C5     -19.4393     9.8022    34.2798 C.ar  1 Q3YY  -0.1500 
 10 H5     -19.5297     8.7354    34.1381 H     1 Q3YY   0.1500 
 11 C6     -25.6889     8.8397    36.6914 C.ar  1 Q3YY  -0.1500 
 12 H6     -25.4063     7.8022    36.5907 H     1 Q3YY   0.1500 
 13 C7     -25.0714    11.1682    36.7171 C.ar  1 Q3YY  -0.1500 
 14 H7     -24.3102    11.9297    36.6326 H     1 Q3YY   0.1500 
 15 C8     -19.2153    12.5450    34.6238 C.ar  1 Q3YY  -0.1500 
 16 H8     -19.1289    13.6135    34.7556 H     1 Q3YY   0.1500 
 17 C9     -18.4036    10.4979    33.6905 C.ar  1 Q3YY  -0.1500 
 18 H9     -17.6767     9.9730    33.0884 H     1 Q3YY   0.1500 
 19 C10    -22.7856     8.3591    36.7356 C.2   1 Q3YY  -0.3016 
 20 H10    -23.2151     7.5169    37.2578 H     1 Q3YY   0.1500 
 21 C11    -20.3559    10.4809    35.0496 C.ar  1 Q3YY   0.0540 
 22 C12    -21.4805     8.5056    36.3190 C.2   1 Q3YY  -0.1810 
 23 C13    -24.7518     9.8373    36.5911 C.ar  1 Q3YY  -0.0230 
 24 C14    -18.2934    11.8582    33.8673 C.ar  1 Q3YY   0.1900 
 25 C15    -21.4385     9.7831    35.6841 C.2   1 Q3YY   0.2348 
 26 C16    -20.4939     6.4389    35.4812 C.2   1 Q3YY   0.5690 
 27 C17    -20.8252     5.4138    37.4822 C.2   1 Q3YY   0.6900 
 28 C18    -20.3857     7.5282    36.5053 C.3   1 Q3YY   0.4621 
 29 H18    -19.4646     8.1108    36.4863 H     1 Q3YY   0.0800 
 30 N19    -22.6317    10.3860    35.7119 N.2   1 Q3YY  -0.7068 
 31 N20    -23.4218     9.5049    36.3484 N.pl3 1 Q3YY   0.5926 
 32 N21    -20.7781     5.2678    36.1298 N.am  1 Q3YY  -0.4900 
 33 H21    -20.9360     4.3899    35.6560 H     1 Q3YY   0.3700 
 34 N22    -20.5985     6.7406    37.7144 N.am  1 Q3YY  -0.7301 
 35 H22    -20.5799     7.1409    38.6415 H     1 Q3YY   0.3700 
 36 O23    -20.3413     6.5854    34.2795 O.2   1 Q3YY  -0.5700 
 37 O24    -21.0332     4.5271    38.3072 O.2   1 Q3YY  -0.5700 
 38 F25    -17.2694    12.5341    33.2932 F     1 Q3YY  -0.1900 
@<TRIPOS>BOND
  1   1   2  1   
  2   1   3  ar  
  3   1   5  ar  
  4   3   4  1   
  5   3  11  ar  
  6   5   6  1   
  7   5  13  ar  
  8   7   8  1   
  9   7  15  ar  
 10   7  21  ar  
 11   9  10  1   
 12   9  17  ar  
 13   9  21  ar  
 14  11  12  1   
 15  11  23  ar  
 16  13  14  1   
 17  13  23  ar  
 18  15  16  1   
 19  15  24  ar  
 20  17  18  1   
 21  17  24  ar  
 22  19  20  1   
 23  19  22  2   
 24  19  31  1   
 25  21  25  1   
 26  22  25  1   
 27  22  28  1   
 28  23  31  1   
 29  24  38  1   
 30  25  30  2   
 31  26  28  1   
 32  26  32  am  
 33  26  36  2   
 34  27  32  am  
 35  27  34  am  
 36  27  37  2   
 37  28  29  1   
 38  28  34  1   
 39  30  31  1   
 40  32  33  1   
 41  34  35  1   
@<TRIPOS>SUBSTRUCTURE
  1 Q3YY  25 GROUP 4 B **** 0

# MOE 2012.10 (io_trps.svl 2012.10)
