@<TRIPOS>MOLECULE
3pyy.B
80 78 2 0 0 
SMALL
USER_CHARGES


@<TRIPOS>ATOM
  1 O1      -7.8720    18.2350     9.7208 O.3   1 Q2PE  -0.6800 
  2 H1      -8.7341    18.0172     9.3589 H     1 Q2PE   0.4000 
  3 C2      -7.2550    17.0342    10.0980 C.3   1 Q2PE   0.1200 
  4 H21     -7.8665    16.5332    10.8484 H     1 Q2PE   0.0800 
  5 H22     -6.2710    17.2483    10.5150 H     1 Q2PE   0.0800 
  6 C3      -7.1024    16.1241     8.8761 C.3   1 Q2PE   0.1200 
  7 H31     -7.5589    16.5991     8.0077 H     1 Q2PE   0.0800 
  8 H32     -7.5930    15.1699     9.0681 H     1 Q2PE   0.0800 
  9 O4      -5.7336    15.9095     8.6308 O.3   1 Q2PE  -0.5600 
 10 C5      -5.3473    14.9015     7.7349 C.3   1 Q2PE   0.1200 
 11 H51     -5.6302    15.1881     6.7220 H     1 Q2PE   0.0800 
 12 H52     -5.8450    13.9690     8.0009 H     1 Q2PE   0.0800 
 13 C6      -3.8323    14.7083     7.8051 C.3   1 Q2PE   0.1200 
 14 H61     -3.5723    13.7606     7.3335 H     1 Q2PE   0.0800 
 15 H62     -3.5240    14.6905     8.8505 H     1 Q2PE   0.0800 
 16 O7      -3.1566    15.7500     7.1451 O.3   1 Q2PE  -0.5600 
 17 C8      -1.7676    15.8328     7.3254 C.3   1 Q2PE   0.1200 
 18 H81     -1.2978    14.9372     6.9188 H     1 Q2PE   0.0800 
 19 H82     -1.5467    15.9075     8.3901 H     1 Q2PE   0.0800 
 20 C9      -1.2140    17.0628     6.6079 C.3   1 Q2PE   0.1200 
 21 H91     -1.5228    17.0374     5.5628 H     1 Q2PE   0.0800 
 22 H92     -0.1256    17.0518     6.6655 H     1 Q2PE   0.0800 
 23 O10     -1.6957    18.2385     7.2029 O.3   1 Q2PE  -0.5600 
 24 C11     -0.7807    19.2624     7.4972 C.3   1 Q2PE   0.1200 
 25 H111     0.0820    19.1788     6.8364 H     1 Q2PE   0.0800 
 26 H112    -0.4549    19.1708     8.5334 H     1 Q2PE   0.0800 
 27 C12     -1.4490    20.6232     7.2922 C.3   1 Q2PE   0.1200 
 28 H121    -2.0848    20.5893     6.4075 H     1 Q2PE   0.0800 
 29 H122    -0.6856    21.3902     7.1619 H     1 Q2PE   0.0800 
 30 O13     -2.2282    20.9204     8.4219 O.3   1 Q2PE  -0.5600 
 31 C14     -3.5560    21.3523     8.2556 C.3   1 Q2PE   0.1200 
 32 H141    -4.0993    20.6332     7.6425 H     1 Q2PE   0.0800 
 33 H142    -3.5642    22.3263     7.7664 H     1 Q2PE   0.0800 
 34 C15     -4.2260    21.4632     9.6327 C.3   1 Q2PE   0.1200 
 35 H151    -3.7564    22.2675    10.1991 H     1 Q2PE   0.0800 
 36 H152    -4.1055    20.5224    10.1698 H     1 Q2PE   0.0800 
 37 O16     -5.5951    21.7397     9.4793 O.3   1 Q2PE  -0.5600 
 38 C17     -6.5347    20.6970     9.5155 C.3   1 Q2PE   0.1200 
 39 H171    -7.2987    20.9178    10.2610 H     1 Q2PE   0.0800 
 40 H172    -6.0356    19.7627     9.7724 H     1 Q2PE   0.0800 
 41 C18     -7.1857    20.5707     8.1312 C.3   1 Q2PE   0.1200 
 42 H181    -7.4736    21.5603     7.7765 H     1 Q2PE   0.0800 
 43 H182    -8.0712    19.9395     8.2053 H     1 Q2PE   0.0800 
 44 O19     -6.2767    19.9944     7.2196 O.3   1 Q2PE  -0.5600 
 45 C20     -6.6507    19.8600     5.8687 C.3   1 Q2PE   0.1200 
 46 H201    -6.0921    20.5730     5.2623 H     1 Q2PE   0.0800 
 47 H202    -7.7185    20.0525     5.7643 H     1 Q2PE   0.0800 
 48 C21     -6.3376    18.4326     5.4029 C.3   1 Q2PE   0.1200 
 49 H211    -6.7768    18.2681     4.4190 H     1 Q2PE   0.0800 
 50 H212    -6.7581    17.7197     6.1122 H     1 Q2PE   0.0800 
 51 O22     -4.9450    18.2521     5.3291 O.3   1 Q2PE  -0.5600 
 52 C23     -4.1493    19.2430     4.7324 C.3   1 Q2PE   0.1200 
 53 H231    -3.2572    19.4056     5.3373 H     1 Q2PE   0.0800 
 54 H232    -4.7160    20.1716     4.6639 H     1 Q2PE   0.0800 
 55 C24     -3.7391    18.7915     3.3303 C.3   1 Q2PE   0.1200 
 56 H241    -4.6255    18.5137     2.7600 H     1 Q2PE   0.0800 
 57 H242    -3.0696    17.9343     3.4018 H     1 Q2PE   0.0800 
 58 O25     -3.0784    19.8569     2.6907 O.3   1 Q2PE  -0.5600 
 59 C26     -2.0138    20.5161     3.3372 C.3   1 Q2PE   0.1200 
 60 H261    -1.0735    20.2172     2.8741 H     1 Q2PE   0.0800 
 61 H262    -2.0055    20.2352     4.3904 H     1 Q2PE   0.0800 
 62 C27     -2.1713    22.0448     3.2223 C.3   1 Q2PE   0.1200 
 63 H271    -1.3804    22.5302     3.7941 H     1 Q2PE   0.0800 
 64 H272    -3.1416    22.3360     3.6246 H     1 Q2PE   0.0800 
 65 O28     -2.0869    22.4528     1.8779 O.3   1 Q2PE  -0.6800 
 66 H28     -2.7951    22.0177     1.3975 H     1 Q2PE   0.4000 
 67 C1     -17.9731     8.0909    17.3056 C.3   2 GOL    0.1200 
 68 H11    -17.1993     8.6297    16.7587 H     2 GOL    0.0800 
 69 H12    -18.8494     8.7292    17.4187 H     2 GOL    0.0800 
 70 O1     -17.4871     7.7354    18.5742 O.3   2 GOL   -0.6800 
 71 H1     -17.2542     8.5457    19.0334 H     2 GOL    0.4000 
 72 C2     -18.3563     6.8380    16.5365 C.3   2 GOL    0.2000 
 73 H2     -18.4650     5.9806    17.2007 H     2 GOL    0.0800 
 74 O2     -17.3402     6.6345    15.5910 O.3   2 GOL   -0.6800 
 75 H2     -17.5749     5.8598    15.0748 H     2 GOL    0.4000 
 76 C3     -19.6889     7.0535    15.8216 C.3   2 GOL    0.1200 
 77 H31    -20.0398     6.1052    15.4146 H     2 GOL    0.0800 
 78 H32    -19.5541     7.7692    15.0107 H     2 GOL    0.0800 
 79 O3     -20.6400     7.5530    16.7354 O.3   2 GOL   -0.6800 
 80 H3     -21.4637     7.6773    16.2582 H     2 GOL    0.4000 
@<TRIPOS>BOND
  1   1   2  1   
  2   1   3  1   
  3   3   4  1   
  4   3   5  1   
  5   3   6  1   
  6   6   7  1   
  7   6   8  1   
  8   6   9  1   
  9   9  10  1   
 10  10  11  1   
 11  10  12  1   
 12  10  13  1   
 13  13  14  1   
 14  13  15  1   
 15  13  16  1   
 16  16  17  1   
 17  17  18  1   
 18  17  19  1   
 19  17  20  1   
 20  20  21  1   
 21  20  22  1   
 22  20  23  1   
 23  23  24  1   
 24  24  25  1   
 25  24  26  1   
 26  24  27  1   
 27  27  28  1   
 28  27  29  1   
 29  27  30  1   
 30  30  31  1   
 31  31  32  1   
 32  31  33  1   
 33  31  34  1   
 34  34  35  1   
 35  34  36  1   
 36  34  37  1   
 37  37  38  1   
 38  38  39  1   
 39  38  40  1   
 40  38  41  1   
 41  41  42  1   
 42  41  43  1   
 43  41  44  1   
 44  44  45  1   
 45  45  46  1   
 46  45  47  1   
 47  45  48  1   
 48  48  49  1   
 49  48  50  1   
 50  48  51  1   
 51  51  52  1   
 52  52  53  1   
 53  52  54  1   
 54  52  55  1   
 55  55  56  1   
 56  55  57  1   
 57  55  58  1   
 58  58  59  1   
 59  59  60  1   
 60  59  61  1   
 61  59  62  1   
 62  62  63  1   
 63  62  64  1   
 64  62  65  1   
 65  65  66  1   
 66  67  68  1   
 67  67  69  1   
 68  67  70  1   
 69  67  72  1   
 70  70  71  1   
 71  72  73  1   
 72  72  74  1   
 73  72  76  1   
 74  74  75  1   
 75  76  77  1   
 76  76  78  1   
 77  76  79  1   
 78  79  80  1   
@<TRIPOS>SUBSTRUCTURE
  1 Q2PE  51 GROUP 4 B **** 0
  2 GOL   72 GROUP 4 B **** 0

# MOE 2012.10 (io_trps.svl 2012.10)
