@<TRIPOS>MOLECULE
2hzi.A
44 47 1 0 0 
SMALL
USER_CHARGES


@<TRIPOS>ATOM
  1 C10      1.9134    21.0112    40.8732 C.2   1 JIN  -0.1784 
  2 H10      1.9457    22.0906    40.8877 H     1 JIN   0.1500 
  3 C12      2.5607    18.9114    39.9426 C.2   1 JIN   0.6156 
  4 C13      1.7168    16.7819    40.9059 C.3   1 JIN   0.0601 
  5 H131     2.3163    16.3511    40.1040 H     1 JIN   0.0800 
  6 H132     0.6795    16.4662    40.7939 H     1 JIN   0.0800 
  7 H133     2.0984    16.4409    41.8683 H     1 JIN   0.0800 
  8 C15      3.8875    21.9329    36.7341 C.ar  1 JIN  -0.1500 
  9 H15      3.5165    22.1495    35.7432 H     1 JIN   0.1500 
 10 C16      5.2217    22.2597    37.0883 C.ar  1 JIN  -0.1500 
 11 H16      5.8885    22.6734    36.3463 H     1 JIN   0.1500 
 12 C19      3.4894    21.0964    38.9676 C.ar  1 JIN   0.0284 
 13 C20      3.0547    21.3244    37.6876 C.ar  1 JIN   0.1770 
 14 C27     -1.1281    17.0188    44.7555 C.ar  1 JIN   0.1000 
 15 C30     -1.4309    14.2942    45.6430 C.ar  1 JIN   0.1900 
 16 C31     -0.9276    14.5755    44.3977 C.ar  1 JIN  -0.1500 
 17 H31     -0.6326    13.7674    43.7448 H     1 JIN   0.1500 
 18 C34     -2.3760    15.0014    47.7717 C.3   1 JIN  -0.0965 
 19 H341    -2.3344    13.9209    47.9086 H     1 JIN   0.0800 
 20 H342    -3.4134    15.3334    47.8140 H     1 JIN   0.0800 
 21 H343    -1.8058    15.4900    48.5618 H     1 JIN   0.0800 
 22 F35     -1.5842    13.0253    46.0049 F     1 JIN  -0.1900 
 23 C29     -1.7883    15.3607    46.4330 C.ar  1 JIN  -0.1435 
 24 C28     -1.7173    16.7083    45.9979 C.ar  1 JIN  -0.1500 
 25 H28     -2.1148    17.4974    46.6189 H     1 JIN   0.1500 
 26 C26     -0.7925    15.9068    43.9639 C.ar  1 JIN  -0.1500 
 27 H26     -0.4104    16.0840    42.9694 H     1 JIN   0.1500 
 28 N08     -1.0901    18.3510    44.4511 N.pl3 1 JIN  -0.6000 
 29 H08     -1.7091    18.9491    44.9796 H     1 JIN   0.4000 
 30 C04     -0.3235    18.9535    43.5299 C.ar  1 JIN   0.7200 
 31 N03     -0.3784    20.2610    43.6140 N.ar  1 JIN  -0.6200 
 32 C02      0.3575    21.0032    42.7625 C.ar  1 JIN   0.1600 
 33 H02      0.3647    22.0811    42.8293 H     1 JIN   0.1500 
 34 N05      0.3836    18.2546    42.6271 N.ar  1 JIN  -0.6200 
 35 C06      1.1183    18.9655    41.7477 C.ar  1 JIN   0.4270 
 36 N11      1.7937    18.2746    40.8394 N.am  1 JIN  -0.4771 
 37 O14      3.1872    18.2173    39.1401 O.2   1 JIN  -0.5700 
 38 C09      2.6745    20.3085    39.9380 C.2   1 JIN  -0.0140 
 39 C01      1.1156    20.3343    41.7847 C.ar  1 JIN   0.0284 
 40 C18      4.8028    21.4412    39.3317 C.ar  1 JIN   0.1770 
 41 C17      5.6867    22.0449    38.4176 C.ar  1 JIN  -0.1500 
 42 H17      6.6837    22.3356    38.7140 H     1 JIN   0.1500 
 43 CL4      5.4810    21.2119    40.9244 Cl    1 JIN  -0.1770 
 44 CL5      1.3719    20.9281    37.2281 Cl    1 JIN  -0.1770 
@<TRIPOS>BOND
  1   1   2  1   
  2   1  38  2   
  3   1  39  1   
  4   3  36  am  
  5   3  37  2   
  6   3  38  1   
  7   4   5  1   
  8   4   6  1   
  9   4   7  1   
 10   4  36  1   
 11   8   9  1   
 12   8  10  ar  
 13   8  13  ar  
 14  10  11  1   
 15  10  41  ar  
 16  12  13  ar  
 17  12  38  1   
 18  12  40  ar  
 19  13  44  1   
 20  14  24  ar  
 21  14  26  ar  
 22  14  28  1   
 23  15  16  ar  
 24  15  22  1   
 25  15  23  ar  
 26  16  17  1   
 27  16  26  ar  
 28  18  19  1   
 29  18  20  1   
 30  18  21  1   
 31  18  23  1   
 32  23  24  ar  
 33  24  25  1   
 34  26  27  1   
 35  28  29  1   
 36  28  30  1   
 37  30  31  ar  
 38  30  34  ar  
 39  31  32  ar  
 40  32  33  1   
 41  32  39  ar  
 42  34  35  ar  
 43  35  36  1   
 44  35  39  ar  
 45  40  41  ar  
 46  40  43  1   
 47  41  42  1   
@<TRIPOS>SUBSTRUCTURE
  1 JIN  35 GROUP 4 A **** 0

# MOE 2012.10 (io_trps.svl 2012.10)
