@<TRIPOS>MOLECULE
2hzi.A
945 630 315 0 0 
SMALL
USER_CHARGES


@<TRIPOS>ATOM
  1 O       -9.6661     6.4465    33.7876 O.3     1 HOH   0.0000 
  2 H1      -8.7061     6.4465    33.7876 H       1 HOH   0.0000 
  3 H2      -9.9563     7.0935    34.4347 H       1 HOH   0.0000 
  4 O       -7.2445     6.0658    21.3584 O.3     2 HOH   0.0000 
  5 H1      -6.2845     6.0658    21.3584 H       2 HOH   0.0000 
  6 H2      -7.5348     6.7129    22.0054 H       2 HOH   0.0000 
  7 O      -14.3592     6.2443    22.0302 O.3     3 HOH   0.0000 
  8 H1     -13.3992     6.2443    22.0302 H       3 HOH   0.0000 
  9 H2     -14.6494     6.8914    22.6773 H       3 HOH   0.0000 
 10 O      -16.9174     6.9390    45.3623 O.3     4 HOH   0.0000 
 11 H1     -15.9574     6.9390    45.3623 H       4 HOH   0.0000 
 12 H2     -17.2077     7.5861    46.0093 H       4 HOH   0.0000 
 13 O       -9.3999     7.0487    22.5002 O.3     5 HOH   0.0000 
 14 H1      -8.4399     7.0487    22.5002 H       5 HOH   0.0000 
 15 H2      -9.6902     7.6958    23.1472 H       5 HOH   0.0000 
 16 O       -3.8712    15.5724    25.3336 O.3     6 HOH   0.0000 
 17 H1      -2.9112    15.5724    25.3336 H       6 HOH   0.0000 
 18 H2      -4.1615    16.2194    25.9807 H       6 HOH   0.0000 
 19 O       -6.7352     9.6199    33.8563 O.3     7 HOH   0.0000 
 20 H1      -5.7752     9.6199    33.8563 H       7 HOH   0.0000 
 21 H2      -7.0255    10.2670    34.5033 H       7 HOH   0.0000 
 22 O       -3.9804     3.6643    27.5925 O.3     8 HOH   0.0000 
 23 H1      -3.0204     3.6643    27.5925 H       8 HOH   0.0000 
 24 H2      -4.2707     4.3113    28.2395 H       8 HOH   0.0000 
 25 O      -17.3192     7.2973    42.6394 O.3     9 HOH   0.0000 
 26 H1     -16.3592     7.2973    42.6394 H       9 HOH   0.0000 
 27 H2     -17.6095     7.9444    43.2865 H       9 HOH   0.0000 
 28 O       -5.2422     7.1491    34.1098 O.3    10 HOH   0.0000 
 29 H1      -4.2822     7.1491    34.1098 H      10 HOH   0.0000 
 30 H2      -5.5325     7.7961    34.7569 H      10 HOH   0.0000 
 31 O      -14.2390    13.2472    10.8073 O.3    11 HOH   0.0000 
 32 H1     -13.2790    13.2472    10.8073 H      11 HOH   0.0000 
 33 H2     -14.5293    13.8943    11.4543 H      11 HOH   0.0000 
 34 O       -4.2751    11.8610    43.6967 O.3    12 HOH  -0.8340 
 35 H1      -4.7296    11.0589    43.4395 H      12 HOH   0.4170 
 36 H2      -3.8430    11.6382    44.5212 H      12 HOH   0.4170 
 37 O       16.4032    25.3160    28.2680 O.3    13 HOH   0.0000 
 38 H1      17.3632    25.3160    28.2680 H      13 HOH   0.0000 
 39 H2      16.1130    25.9631    28.9150 H      13 HOH   0.0000 
 40 O       -2.6551    15.9700    21.9859 O.3    14 HOH   0.0000 
 41 H1      -1.6951    15.9700    21.9859 H      14 HOH   0.0000 
 42 H2      -2.9454    16.6171    22.6330 H      14 HOH   0.0000 
 43 O       -3.6173    11.6808    27.7037 O.3    15 HOH   0.0000 
 44 H1      -2.6573    11.6808    27.7037 H      15 HOH   0.0000 
 45 H2      -3.9075    12.3278    28.3507 H      15 HOH   0.0000 
 46 O       -1.9757    29.8619    35.7734 O.3    16 HOH   0.0000 
 47 H1      -1.0157    29.8619    35.7734 H      16 HOH   0.0000 
 48 H2      -2.2660    30.5089    36.4204 H      16 HOH   0.0000 
 49 O      -17.5552     9.9939    17.2487 O.3    17 HOH   0.0000 
 50 H1     -16.5952     9.9939    17.2487 H      17 HOH   0.0000 
 51 H2     -17.8455    10.6410    17.8957 H      17 HOH   0.0000 
 52 O      -13.4182     6.4376    12.6212 O.3    18 HOH   0.0000 
 53 H1     -12.4582     6.4376    12.6212 H      18 HOH   0.0000 
 54 H2     -13.7085     7.0847    13.2683 H      18 HOH   0.0000 
 55 O      -15.5173    10.2546    12.2758 O.3    19 HOH   0.0000 
 56 H1     -14.5573    10.2546    12.2758 H      19 HOH   0.0000 
 57 H2     -15.8075    10.9017    12.9228 H      19 HOH   0.0000 
 58 O        2.4553    33.1445    35.1231 O.3    20 HOH   0.0000 
 59 H1       3.4153    33.1445    35.1231 H      20 HOH   0.0000 
 60 H2       2.1650    33.7915    35.7702 H      20 HOH   0.0000 
 61 O        1.9363    29.4624    35.7125 O.3    21 HOH   0.0000 
 62 H1       2.8963    29.4624    35.7125 H      21 HOH   0.0000 
 63 H2       1.6460    30.1094    36.3596 H      21 HOH   0.0000 
 64 O       10.7032    31.4595    53.0721 O.3    22 HOH   0.0000 
 65 H1      11.6632    31.4595    53.0721 H      22 HOH   0.0000 
 66 H2      10.4130    32.1066    53.7192 H      22 HOH   0.0000 
 67 O      -22.8252    19.5553    45.6747 O.3    23 HOH   0.0000 
 68 H1     -21.8652    19.5553    45.6747 H      23 HOH   0.0000 
 69 H2     -23.1155    20.2024    46.3217 H      23 HOH   0.0000 
 70 O      -16.7808    13.8797    48.1198 O.3    24 HOH   0.0000 
 71 H1     -15.8208    13.8797    48.1198 H      24 HOH   0.0000 
 72 H2     -17.0710    14.5268    48.7669 H      24 HOH   0.0000 
 73 O      -25.3590    12.1653    42.5306 O.3    25 HOH   0.0000 
 74 H1     -24.3990    12.1653    42.5306 H      25 HOH   0.0000 
 75 H2     -25.6493    12.8124    43.1776 H      25 HOH   0.0000 
 76 O      -21.6782    14.4807    17.8614 O.3    26 HOH   0.0000 
 77 H1     -20.7182    14.4807    17.8614 H      26 HOH   0.0000 
 78 H2     -21.9685    15.1277    18.5085 H      26 HOH   0.0000 
 79 O      -27.0349    15.6782    45.0590 O.3    27 HOH   0.0000 
 80 H1     -26.0749    15.6782    45.0590 H      27 HOH   0.0000 
 81 H2     -27.3251    16.3252    45.7061 H      27 HOH   0.0000 
 82 O      -12.8966    12.1905    46.6256 O.3    28 HOH   0.0000 
 83 H1     -11.9366    12.1905    46.6256 H      28 HOH   0.0000 
 84 H2     -13.1869    12.8376    47.2726 H      28 HOH   0.0000 
 85 O      -23.8524     8.0204    40.0765 O.3    29 HOH   0.0000 
 86 H1     -22.8924     8.0204    40.0765 H      29 HOH   0.0000 
 87 H2     -24.1427     8.6675    40.7236 H      29 HOH   0.0000 
 88 O      -13.1236    19.6170    46.4492 O.3    30 HOH   0.0000 
 89 H1     -12.1636    19.6170    46.4492 H      30 HOH   0.0000 
 90 H2     -13.4139    20.2641    47.0963 H      30 HOH   0.0000 
 91 O       -0.2758    26.9442    47.3830 O.3    31 HOH   0.0000 
 92 H1       0.6842    26.9442    47.3830 H      31 HOH   0.0000 
 93 H2      -0.5661    27.5912    48.0300 H      31 HOH   0.0000 
 94 O      -27.0313    17.8576    40.3405 O.3    32 HOH   0.0000 
 95 H1     -26.0713    17.8576    40.3405 H      32 HOH   0.0000 
 96 H2     -27.3216    18.5046    40.9875 H      32 HOH   0.0000 
 97 O      -20.5449    20.5358    46.9185 O.3    33 HOH   0.0000 
 98 H1     -19.5849    20.5358    46.9185 H      33 HOH   0.0000 
 99 H2     -20.8351    21.1828    47.5656 H      33 HOH   0.0000 
100 O       -2.5111    22.9066    16.9281 O.3    34 HOH   0.0000 
101 H1      -1.5511    22.9066    16.9281 H      34 HOH   0.0000 
102 H2      -2.8014    23.5537    17.5751 H      34 HOH   0.0000 
103 O        0.3318    10.5962    32.1038 O.3    35 HOH   0.0000 
104 H1       1.2918    10.5962    32.1038 H      35 HOH   0.0000 
105 H2       0.0415    11.2433    32.7509 H      35 HOH   0.0000 
106 O       -9.3647    23.9627    17.8024 O.3    36 HOH   0.0000 
107 H1      -8.4047    23.9627    17.8024 H      36 HOH   0.0000 
108 H2      -9.6549    24.6097    18.4495 H      36 HOH   0.0000 
109 O      -15.7373     0.2248    25.3890 O.3    37 HOH   0.0000 
110 H1     -14.7773     0.2248    25.3890 H      37 HOH   0.0000 
111 H2     -16.0276     0.8719    26.0361 H      37 HOH   0.0000 
112 O      -15.7336    -2.2731    26.6298 O.3    38 HOH   0.0000 
113 H1     -14.7736    -2.2731    26.6298 H      38 HOH   0.0000 
114 H2     -16.0238    -1.6260    27.2768 H      38 HOH   0.0000 
115 O      -15.2142     4.3674    42.5152 O.3    39 HOH   0.0000 
116 H1     -14.2542     4.3674    42.5152 H      39 HOH   0.0000 
117 H2     -15.5045     5.0144    43.1622 H      39 HOH   0.0000 
118 O        2.0156    31.9908    23.5468 O.3    40 HOH   0.0000 
119 H1       2.9756    31.9908    23.5468 H      40 HOH   0.0000 
120 H2       1.7253    32.6378    24.1939 H      40 HOH   0.0000 
121 O        9.0093    32.6828    29.4992 O.3    41 HOH   0.0000 
122 H1       9.9693    32.6828    29.4992 H      41 HOH   0.0000 
123 H2       8.7191    33.3298    30.1462 H      41 HOH   0.0000 
124 O       -4.3179    29.4140    38.6351 O.3    42 HOH   0.0000 
125 H1      -3.3579    29.4140    38.6351 H      42 HOH   0.0000 
126 H2      -4.6081    30.0611    39.2821 H      42 HOH   0.0000 
127 O      -23.8472    16.2925    34.5691 O.3    43 HOH   0.0000 
128 H1     -22.8872    16.2925    34.5691 H      43 HOH   0.0000 
129 H2     -24.1374    16.9395    35.2162 H      43 HOH   0.0000 
130 O      -26.8205    12.8673    35.1087 O.3    44 HOH   0.0000 
131 H1     -25.8605    12.8673    35.1087 H      44 HOH   0.0000 
132 H2     -27.1108    13.5143    35.7557 H      44 HOH   0.0000 
133 O        5.3535    12.2688    41.3853 O.3    45 HOH  -0.8340 
134 H1       5.0697    12.6258    42.2269 H      45 HOH   0.4170 
135 H2       6.1440    11.7697    41.5907 H      45 HOH   0.4170 
136 O      -14.6222    25.9877    43.1797 O.3    46 HOH   0.0000 
137 H1     -13.6622    25.9877    43.1797 H      46 HOH   0.0000 
138 H2     -14.9125    26.6348    43.8268 H      46 HOH   0.0000 
139 O      -14.2796    20.4470    49.0888 O.3    47 HOH   0.0000 
140 H1     -13.3196    20.4470    49.0888 H      47 HOH   0.0000 
141 H2     -14.5699    21.0940    49.7359 H      47 HOH   0.0000 
142 O        1.1478    12.0766    24.3814 O.3    48 HOH   0.0000 
143 H1       2.1078    12.0766    24.3814 H      48 HOH   0.0000 
144 H2       0.8576    12.7236    25.0284 H      48 HOH   0.0000 
145 O       19.5172    19.2504    28.4064 O.3    49 HOH   0.0000 
146 H1      20.4772    19.2504    28.4064 H      49 HOH   0.0000 
147 H2      19.2269    19.8974    29.0534 H      49 HOH   0.0000 
148 O      -23.8595    12.5776    38.1489 O.3    50 HOH   0.0000 
149 H1     -22.8995    12.5776    38.1489 H      50 HOH   0.0000 
150 H2     -24.1498    13.2246    38.7959 H      50 HOH   0.0000 
151 O      -27.6195     0.5796    36.3410 O.3    51 HOH   0.0000 
152 H1     -26.6595     0.5796    36.3410 H      51 HOH   0.0000 
153 H2     -27.9097     1.2267    36.9881 H      51 HOH   0.0000 
154 O       20.4901    16.8430    31.1480 O.3    52 HOH   0.0000 
155 H1      21.4501    16.8430    31.1480 H      52 HOH   0.0000 
156 H2      20.1998    17.4900    31.7950 H      52 HOH   0.0000 
157 O      -24.0601    20.6421    43.2787 O.3    53 HOH   0.0000 
158 H1     -23.1001    20.6421    43.2787 H      53 HOH   0.0000 
159 H2     -24.3503    21.2892    43.9258 H      53 HOH   0.0000 
160 O       -7.1033    11.1116    12.3446 O.3    54 HOH   0.0000 
161 H1      -6.1433    11.1116    12.3446 H      54 HOH   0.0000 
162 H2      -7.3936    11.7587    12.9916 H      54 HOH   0.0000 
163 O       -3.1645    13.6831    23.3329 O.3    55 HOH   0.0000 
164 H1      -2.2045    13.6831    23.3329 H      55 HOH   0.0000 
165 H2      -3.4548    14.3302    23.9800 H      55 HOH   0.0000 
166 O       10.7582    21.9646    23.0740 O.3    56 HOH   0.0000 
167 H1      11.7182    21.9646    23.0740 H      56 HOH   0.0000 
168 H2      10.4679    22.6117    23.7210 H      56 HOH   0.0000 
169 O       -5.0745    12.0172    46.3224 O.3    57 HOH  -0.8340 
170 H1      -5.7134    11.6484    46.9323 H      57 HOH   0.4170 
171 H2      -5.1234    12.9623    46.4659 H      57 HOH   0.4170 
172 O       -6.7636     3.4761    36.1823 O.3    58 HOH   0.0000 
173 H1      -5.8036     3.4761    36.1823 H      58 HOH   0.0000 
174 H2      -7.0539     4.1231    36.8294 H      58 HOH   0.0000 
175 O       -3.4844    17.5651    50.9415 O.3    59 HOH  -0.8340 
176 H1      -2.8467    16.9737    50.5419 H      59 HOH   0.4170 
177 H2      -4.1346    17.7161    50.2555 H      59 HOH   0.4170 
178 O       -5.4232    33.5184    36.7799 O.3    60 HOH   0.0000 
179 H1      -4.4632    33.5184    36.7799 H      60 HOH   0.0000 
180 H2      -5.7135    34.1655    37.4269 H      60 HOH   0.0000 
181 O       -1.1202    10.8370    23.6844 O.3    61 HOH   0.0000 
182 H1      -0.1602    10.8370    23.6844 H      61 HOH   0.0000 
183 H2      -1.4105    11.4840    24.3314 H      61 HOH   0.0000 
184 O       -9.4742    29.4600    22.1199 O.3    62 HOH   0.0000 
185 H1      -8.5142    29.4600    22.1199 H      62 HOH   0.0000 
186 H2      -9.7645    30.1070    22.7669 H      62 HOH   0.0000 
187 O      -12.6772    27.6400    38.7834 O.3    63 HOH   0.0000 
188 H1     -11.7172    27.6400    38.7834 H      63 HOH   0.0000 
189 H2     -12.9675    28.2871    39.4304 H      63 HOH   0.0000 
190 O       -4.1881     0.2169    19.3844 O.3    64 HOH   0.0000 
191 H1      -3.2281     0.2169    19.3844 H      64 HOH   0.0000 
192 H2      -4.4784     0.8639    20.0315 H      64 HOH   0.0000 
193 O        1.6885    17.6245    29.2761 O.3    65 HOH   0.0000 
194 H1       2.6485    17.6245    29.2761 H      65 HOH   0.0000 
195 H2       1.3982    18.2715    29.9232 H      65 HOH   0.0000 
196 O       -3.2702     8.2494    38.5068 O.3    66 HOH   0.0000 
197 H1      -2.3102     8.2494    38.5068 H      66 HOH   0.0000 
198 H2      -3.5605     8.8965    39.1538 H      66 HOH   0.0000 
199 O       -8.5775    29.5631    40.3953 O.3    67 HOH   0.0000 
200 H1      -7.6175    29.5631    40.3953 H      67 HOH   0.0000 
201 H2      -8.8678    30.2101    41.0424 H      67 HOH   0.0000 
202 O      -10.4282    30.6016    28.6982 O.3    68 HOH   0.0000 
203 H1      -9.4682    30.6016    28.6982 H      68 HOH   0.0000 
204 H2     -10.7185    31.2486    29.3452 H      68 HOH   0.0000 
205 O       -1.6654    11.2328    43.3221 O.3    69 HOH  -0.8340 
206 H1      -1.6811    10.3809    42.8859 H      69 HOH   0.4170 
207 H2      -2.5358    11.5988    43.1651 H      69 HOH   0.4170 
208 O      -15.6352     9.9853    50.1426 O.3    70 HOH   0.0000 
209 H1     -14.6752     9.9853    50.1426 H      70 HOH   0.0000 
210 H2     -15.9255    10.6323    50.7897 H      70 HOH   0.0000 
211 O      -11.3475    26.4517    46.0350 O.3    71 HOH   0.0000 
212 H1     -10.3875    26.4517    46.0350 H      71 HOH   0.0000 
213 H2     -11.6378    27.0988    46.6820 H      71 HOH   0.0000 
214 O       -7.3158     5.2031    34.0962 O.3    72 HOH   0.0000 
215 H1      -6.3558     5.2031    34.0962 H      72 HOH   0.0000 
216 H2      -7.6061     5.8501    34.7432 H      72 HOH   0.0000 
217 O       -3.6240     6.5951    36.2845 O.3    73 HOH   0.0000 
218 H1      -2.6640     6.5951    36.2845 H      73 HOH   0.0000 
219 H2      -3.9143     7.2422    36.9315 H      73 HOH   0.0000 
220 O      -24.3265    13.6250    35.5150 O.3    74 HOH   0.0000 
221 H1     -23.3665    13.6250    35.5150 H      74 HOH   0.0000 
222 H2     -24.6167    14.2720    36.1621 H      74 HOH   0.0000 
223 O      -26.3047    17.2905    34.0103 O.3    75 HOH   0.0000 
224 H1     -25.3447    17.2905    34.0103 H      75 HOH   0.0000 
225 H2     -26.5950    17.9376    34.6574 H      75 HOH   0.0000 
226 O       -1.5770    24.5087    18.9661 O.3    76 HOH   0.0000 
227 H1      -0.6170    24.5087    18.9661 H      76 HOH   0.0000 
228 H2      -1.8673    25.1558    19.6132 H      76 HOH   0.0000 
229 O      -28.5885    18.3804    37.9389 O.3    77 HOH   0.0000 
230 H1     -27.6285    18.3804    37.9389 H      77 HOH   0.0000 
231 H2     -28.8788    19.0274    38.5860 H      77 HOH   0.0000 
232 O      -21.9407    15.9458    32.6105 O.3    78 HOH   0.0000 
233 H1     -20.9807    15.9458    32.6105 H      78 HOH   0.0000 
234 H2     -22.2310    16.5928    33.2575 H      78 HOH   0.0000 
235 O       -5.9566    23.5273    46.7422 O.3    79 HOH   0.0000 
236 H1      -4.9966    23.5273    46.7422 H      79 HOH   0.0000 
237 H2      -6.2468    24.1743    47.3892 H      79 HOH   0.0000 
238 O      -25.0738     9.3061    42.4411 O.3    80 HOH   0.0000 
239 H1     -24.1138     9.3061    42.4411 H      80 HOH   0.0000 
240 H2     -25.3641     9.9532    43.0882 H      80 HOH   0.0000 
241 O       -3.8489    16.1776    15.4296 O.3    81 HOH   0.0000 
242 H1      -2.8889    16.1776    15.4296 H      81 HOH   0.0000 
243 H2      -4.1391    16.8246    16.0767 H      81 HOH   0.0000 
244 O       -6.6891     3.0538    32.2957 O.3    82 HOH   0.0000 
245 H1      -5.7291     3.0538    32.2957 H      82 HOH   0.0000 
246 H2      -6.9794     3.7009    32.9427 H      82 HOH   0.0000 
247 O      -28.1223    15.2731    34.5253 O.3    83 HOH   0.0000 
248 H1     -27.1623    15.2731    34.5253 H      83 HOH   0.0000 
249 H2     -28.4126    15.9202    35.1724 H      83 HOH   0.0000 
250 O      -23.9533    13.7707    51.5234 O.3    84 HOH   0.0000 
251 H1     -22.9933    13.7707    51.5234 H      84 HOH   0.0000 
252 H2     -24.2435    14.4177    52.1704 H      84 HOH   0.0000 
253 O        3.2491    15.7278    29.7563 O.3    85 HOH   0.0000 
254 H1       4.2091    15.7278    29.7563 H      85 HOH   0.0000 
255 H2       2.9589    16.3749    30.4034 H      85 HOH   0.0000 
256 O      -11.1493    31.6153    22.5441 O.3    86 HOH   0.0000 
257 H1     -10.1893    31.6153    22.5441 H      86 HOH   0.0000 
258 H2     -11.4396    32.2624    23.1912 H      86 HOH   0.0000 
259 O       14.3350    28.9870    32.8157 O.3    87 HOH   0.0000 
260 H1      15.2950    28.9870    32.8157 H      87 HOH   0.0000 
261 H2      14.0447    29.6341    33.4627 H      87 HOH   0.0000 
262 O       -8.7403     5.9883    43.6320 O.3    88 HOH   0.0000 
263 H1      -7.7803     5.9883    43.6320 H      88 HOH   0.0000 
264 H2      -9.0306     6.6353    44.2791 H      88 HOH   0.0000 
265 O      -24.2932     5.0130    23.2516 O.3    89 HOH   0.0000 
266 H1     -23.3332     5.0130    23.2516 H      89 HOH   0.0000 
267 H2     -24.5835     5.6601    23.8987 H      89 HOH   0.0000 
268 O       16.1257    31.9047    52.2010 O.3    90 HOH   0.0000 
269 H1      17.0857    31.9047    52.2010 H      90 HOH   0.0000 
270 H2      15.8354    32.5518    52.8481 H      90 HOH   0.0000 
271 O        3.2370    13.4485    22.6588 O.3    91 HOH   0.0000 
272 H1       4.1970    13.4485    22.6588 H      91 HOH   0.0000 
273 H2       2.9467    14.0956    23.3058 H      91 HOH   0.0000 
274 O      -12.6157     0.9864    35.7764 O.3    92 HOH   0.0000 
275 H1     -11.6557     0.9864    35.7764 H      92 HOH   0.0000 
276 H2     -12.9060     1.6335    36.4235 H      92 HOH   0.0000 
277 O      -27.8090    21.7268    32.1355 O.3    93 HOH   0.0000 
278 H1     -26.8490    21.7268    32.1355 H      93 HOH   0.0000 
279 H2     -28.0993    22.3739    32.7826 H      93 HOH   0.0000 
280 O      -25.8446    13.2150    40.1159 O.3    94 HOH   0.0000 
281 H1     -24.8846    13.2150    40.1159 H      94 HOH   0.0000 
282 H2     -26.1348    13.8621    40.7630 H      94 HOH   0.0000 
283 O       10.2969    21.3265    28.1220 O.3    95 HOH   0.0000 
284 H1      11.2569    21.3265    28.1220 H      95 HOH   0.0000 
285 H2      10.0066    21.9736    28.7690 H      95 HOH   0.0000 
286 O      -19.3952    16.6749    32.3537 O.3    96 HOH   0.0000 
287 H1     -18.4352    16.6749    32.3537 H      96 HOH   0.0000 
288 H2     -19.6855    17.3220    33.0007 H      96 HOH   0.0000 
289 O      -15.6602    29.8781    24.8191 O.3    97 HOH   0.0000 
290 H1     -14.7002    29.8781    24.8191 H      97 HOH   0.0000 
291 H2     -15.9505    30.5252    25.4661 H      97 HOH   0.0000 
292 O      -18.8501    14.4891    31.6290 O.3    98 HOH   0.0000 
293 H1     -17.8901    14.4891    31.6290 H      98 HOH   0.0000 
294 H2     -19.1404    15.1362    32.2761 H      98 HOH   0.0000 
295 O      -27.0447    19.3261    35.7661 O.3    99 HOH   0.0000 
296 H1     -26.0847    19.3261    35.7661 H      99 HOH   0.0000 
297 H2     -27.3350    19.9732    36.4132 H      99 HOH   0.0000 
298 O       14.3807    21.7866    51.8615 O.3   100 HOH   0.0000 
299 H1      15.3407    21.7866    51.8615 H     100 HOH   0.0000 
300 H2      14.0904    22.4336    52.5086 H     100 HOH   0.0000 
301 O       18.7250    20.3508    38.8652 O.3   101 HOH   0.0000 
302 H1      19.6850    20.3508    38.8652 H     101 HOH   0.0000 
303 H2      18.4348    20.9978    39.5123 H     101 HOH   0.0000 
304 O      -15.6634     4.9608    39.8208 O.3   102 HOH   0.0000 
305 H1     -14.7034     4.9608    39.8208 H     102 HOH   0.0000 
306 H2     -15.9537     5.6078    40.4679 H     102 HOH   0.0000 
307 O        6.6986    22.7954    29.0087 O.3   103 HOH   0.0000 
308 H1       7.6586    22.7954    29.0087 H     103 HOH   0.0000 
309 H2       6.4083    23.4425    29.6557 H     103 HOH   0.0000 
310 O        7.8175    13.7978    21.5196 O.3   104 HOH   0.0000 
311 H1       8.7775    13.7978    21.5196 H     104 HOH   0.0000 
312 H2       7.5272    14.4448    22.1666 H     104 HOH   0.0000 
313 O       -2.6930    16.6573    12.9363 O.3   105 HOH   0.0000 
314 H1      -1.7330    16.6573    12.9363 H     105 HOH   0.0000 
315 H2      -2.9833    17.3043    13.5833 H     105 HOH   0.0000 
316 O       10.7407    15.0022    37.1788 O.3   106 HOH   0.0000 
317 H1      11.7007    15.0022    37.1788 H     106 HOH   0.0000 
318 H2      10.4504    15.6493    37.8258 H     106 HOH   0.0000 
319 O        4.6989    11.4101    10.8752 O.3   107 HOH   0.0000 
320 H1       5.6589    11.4101    10.8752 H     107 HOH   0.0000 
321 H2       4.4086    12.0571    11.5222 H     107 HOH   0.0000 
322 O        5.2204    23.8659    31.0184 O.3   108 HOH  -0.8340 
323 H1       4.4859    23.3872    31.4025 H     108 HOH   0.4170 
324 H2       5.2598    24.6835    31.5145 H     108 HOH   0.4170 
325 O       -3.1645    25.5686    20.5092 O.3   109 HOH   0.0000 
326 H1      -2.2045    25.5686    20.5092 H     109 HOH   0.0000 
327 H2      -3.4548    26.2156    21.1563 H     109 HOH   0.0000 
328 O       13.8793     9.5377    19.3321 O.3   110 HOH   0.0000 
329 H1      14.8393     9.5377    19.3321 H     110 HOH   0.0000 
330 H2      13.5891    10.1847    19.9792 H     110 HOH   0.0000 
331 O        3.2997    29.2957    20.4704 O.3   111 HOH   0.0000 
332 H1       4.2597    29.2957    20.4704 H     111 HOH   0.0000 
333 H2       3.0094    29.9428    21.1175 H     111 HOH   0.0000 
334 O       12.9776    32.8561    53.6089 O.3   112 HOH   0.0000 
335 H1      13.9376    32.8561    53.6089 H     112 HOH   0.0000 
336 H2      12.6873    33.5031    54.2559 H     112 HOH   0.0000 
337 O      -16.8515     8.7187    14.3082 O.3   113 HOH   0.0000 
338 H1     -15.8915     8.7187    14.3082 H     113 HOH   0.0000 
339 H2     -17.1418     9.3657    14.9553 H     113 HOH   0.0000 
340 O      -28.7874    16.5891    27.2698 O.3   114 HOH   0.0000 
341 H1     -27.8274    16.5891    27.2698 H     114 HOH   0.0000 
342 H2     -29.0777    17.2362    27.9169 H     114 HOH   0.0000 
343 O        5.2854    18.3377    12.5973 O.3   115 HOH   0.0000 
344 H1       6.2454    18.3377    12.5973 H     115 HOH   0.0000 
345 H2       4.9952    18.9848    13.2444 H     115 HOH   0.0000 
346 O       -6.7890    10.2171    47.3447 O.3   116 HOH   0.0000 
347 H1      -5.8290    10.2171    47.3447 H     116 HOH   0.0000 
348 H2      -7.0792    10.8641    47.9917 H     116 HOH   0.0000 
349 O       -1.9634    35.2982    29.7974 O.3   117 HOH   0.0000 
350 H1      -1.0034    35.2982    29.7974 H     117 HOH   0.0000 
351 H2      -2.2537    35.9453    30.4444 H     117 HOH   0.0000 
352 O       -6.3921    34.2686    31.9334 O.3   118 HOH   0.0000 
353 H1      -5.4321    34.2686    31.9334 H     118 HOH   0.0000 
354 H2      -6.6824    34.9157    32.5805 H     118 HOH   0.0000 
355 O       -0.6683    29.5645    46.4546 O.3   119 HOH   0.0000 
356 H1       0.2917    29.5645    46.4546 H     119 HOH   0.0000 
357 H2      -0.9586    30.2115    47.1016 H     119 HOH   0.0000 
358 O      -27.9106    19.8462    42.1263 O.3   120 HOH   0.0000 
359 H1     -26.9506    19.8462    42.1263 H     120 HOH   0.0000 
360 H2     -28.2009    20.4932    42.7734 H     120 HOH   0.0000 
361 O       -3.1987    32.8864    38.1508 O.3   121 HOH   0.0000 
362 H1      -2.2387    32.8864    38.1508 H     121 HOH   0.0000 
363 H2      -3.4890    33.5335    38.7978 H     121 HOH   0.0000 
364 O        4.1818    26.2205    15.4776 O.3   122 HOH   0.0000 
365 H1       5.1418    26.2205    15.4776 H     122 HOH   0.0000 
366 H2       3.8915    26.8675    16.1246 H     122 HOH   0.0000 
367 O        7.7065    24.1095    22.8294 O.3   123 HOH   0.0000 
368 H1       8.6665    24.1095    22.8294 H     123 HOH   0.0000 
369 H2       7.4162    24.7565    23.4765 H     123 HOH   0.0000 
370 O       -9.5781    -5.5022    16.4526 O.3   124 HOH   0.0000 
371 H1      -8.6181    -5.5022    16.4526 H     124 HOH   0.0000 
372 H2      -9.8684    -4.8552    17.0997 H     124 HOH   0.0000 
373 O       -1.1305     3.1897    27.0957 O.3   125 HOH   0.0000 
374 H1      -0.1705     3.1897    27.0957 H     125 HOH   0.0000 
375 H2      -1.4207     3.8367    27.7427 H     125 HOH   0.0000 
376 O       -5.1303    19.9537    13.4935 O.3   126 HOH   0.0000 
377 H1      -4.1703    19.9537    13.4935 H     126 HOH   0.0000 
378 H2      -5.4205    20.6008    14.1405 H     126 HOH   0.0000 
379 O      -22.9609     9.5700    34.6217 O.3   127 HOH   0.0000 
380 H1     -22.0009     9.5700    34.6217 H     127 HOH   0.0000 
381 H2     -23.2511    10.2170    35.2687 H     127 HOH   0.0000 
382 O        3.7623    33.3325    58.0332 O.3   128 HOH   0.0000 
383 H1       4.7223    33.3325    58.0332 H     128 HOH   0.0000 
384 H2       3.4720    33.9796    58.6803 H     128 HOH   0.0000 
385 O      -24.2206     9.7928    37.2139 O.3   129 HOH   0.0000 
386 H1     -23.2606     9.7928    37.2139 H     129 HOH   0.0000 
387 H2     -24.5108    10.4398    37.8609 H     129 HOH   0.0000 
388 O       -6.9318    29.4369    42.9426 O.3   130 HOH   0.0000 
389 H1      -5.9718    29.4369    42.9426 H     130 HOH   0.0000 
390 H2      -7.2221    30.0839    43.5897 H     130 HOH   0.0000 
391 O      -15.8344    27.9314    45.4775 O.3   131 HOH   0.0000 
392 H1     -14.8744    27.9314    45.4775 H     131 HOH   0.0000 
393 H2     -16.1247    28.5784    46.1245 H     131 HOH   0.0000 
394 O      -22.8152    12.2281    33.6360 O.3   132 HOH   0.0000 
395 H1     -21.8552    12.2281    33.6360 H     132 HOH   0.0000 
396 H2     -23.1055    12.8752    34.2831 H     132 HOH   0.0000 
397 O        9.5840    15.8037    18.4041 O.3   133 HOH   0.0000 
398 H1      10.5440    15.8037    18.4041 H     133 HOH   0.0000 
399 H2       9.2937    16.4508    19.0512 H     133 HOH   0.0000 
400 O       -5.0505    -1.6533    17.1673 O.3   134 HOH   0.0000 
401 H1      -4.0905    -1.6533    17.1673 H     134 HOH   0.0000 
402 H2      -5.3408    -1.0062    17.8144 H     134 HOH   0.0000 
403 O       -6.4900     8.4915     8.0742 O.3   135 HOH   0.0000 
404 H1      -5.5300     8.4915     8.0742 H     135 HOH   0.0000 
405 H2      -6.7803     9.1386     8.7212 H     135 HOH   0.0000 
406 O        3.2081    19.0355    24.6640 O.3   136 HOH   0.0000 
407 H1       4.1681    19.0355    24.6640 H     136 HOH   0.0000 
408 H2       2.9179    19.6825    25.3111 H     136 HOH   0.0000 
409 O       -0.9483    26.5528    52.9273 O.3   137 HOH   0.0000 
410 H1       0.0117    26.5528    52.9273 H     137 HOH   0.0000 
411 H2      -1.2386    27.1998    53.5744 H     137 HOH   0.0000 
412 O        8.8318    33.6011    25.4117 O.3   138 HOH   0.0000 
413 H1       9.7918    33.6011    25.4117 H     138 HOH   0.0000 
414 H2       8.5416    34.2481    26.0588 H     138 HOH   0.0000 
415 O        0.3154    32.7348    27.6029 O.3   139 HOH   0.0000 
416 H1       1.2754    32.7348    27.6029 H     139 HOH   0.0000 
417 H2       0.0251    33.3818    28.2500 H     139 HOH   0.0000 
418 O      -11.2494    29.6614    40.3662 O.3   140 HOH   0.0000 
419 H1     -10.2894    29.6614    40.3662 H     140 HOH   0.0000 
420 H2     -11.5396    30.3084    41.0132 H     140 HOH   0.0000 
421 O        0.6395    11.5479    34.7630 O.3   141 HOH   0.0000 
422 H1       1.5995    11.5479    34.7630 H     141 HOH   0.0000 
423 H2       0.3492    12.1949    35.4100 H     141 HOH   0.0000 
424 O      -20.3471     1.8336    21.3322 O.3   142 HOH   0.0000 
425 H1     -19.3871     1.8336    21.3322 H     142 HOH   0.0000 
426 H2     -20.6374     2.4807    21.9793 H     142 HOH   0.0000 
427 O        5.1784    22.1831    13.5581 O.3   143 HOH   0.0000 
428 H1       6.1384    22.1831    13.5581 H     143 HOH   0.0000 
429 H2       4.8881    22.8301    14.2052 H     143 HOH   0.0000 
430 O        4.2660    30.5884    22.6545 O.3   144 HOH   0.0000 
431 H1       5.2260    30.5884    22.6545 H     144 HOH   0.0000 
432 H2       3.9757    31.2354    23.3015 H     144 HOH   0.0000 
433 O      -11.4579    23.1551    12.1616 O.3   145 HOH   0.0000 
434 H1     -10.4979    23.1551    12.1616 H     145 HOH   0.0000 
435 H2     -11.7481    23.8022    12.8087 H     145 HOH   0.0000 
436 O       -5.2217    12.5352    21.9295 O.3   146 HOH   0.0000 
437 H1      -4.2617    12.5352    21.9295 H     146 HOH   0.0000 
438 H2      -5.5120    13.1822    22.5765 H     146 HOH   0.0000 
439 O      -19.1284     3.7274    27.6329 O.3   147 HOH   0.0000 
440 H1     -18.1684     3.7274    27.6329 H     147 HOH   0.0000 
441 H2     -19.4187     4.3745    28.2800 H     147 HOH   0.0000 
442 O      -25.5611     2.0082    38.8656 O.3   148 HOH   0.0000 
443 H1     -24.6011     2.0082    38.8656 H     148 HOH   0.0000 
444 H2     -25.8514     2.6552    39.5127 H     148 HOH   0.0000 
445 O      -12.1533    24.2653    14.5190 O.3   149 HOH   0.0000 
446 H1     -11.1933    24.2653    14.5190 H     149 HOH   0.0000 
447 H2     -12.4436    24.9123    15.1660 H     149 HOH   0.0000 
448 O        5.8334     6.5452    18.5427 O.3   150 HOH   0.0000 
449 H1       6.7934     6.5452    18.5427 H     150 HOH   0.0000 
450 H2       5.5432     7.1923    19.1897 H     150 HOH   0.0000 
451 O      -18.3542     1.7373    26.1929 O.3   151 HOH   0.0000 
452 H1     -17.3942     1.7373    26.1929 H     151 HOH   0.0000 
453 H2     -18.6445     2.3843    26.8399 H     151 HOH   0.0000 
454 O      -13.0579    27.7308    44.3098 O.3   152 HOH   0.0000 
455 H1     -12.0979    27.7308    44.3098 H     152 HOH   0.0000 
456 H2     -13.3481    28.3778    44.9569 H     152 HOH   0.0000 
457 O       11.2792    20.6404    25.7069 O.3   153 HOH   0.0000 
458 H1      12.2392    20.6404    25.7069 H     153 HOH   0.0000 
459 H2      10.9890    21.2875    26.3539 H     153 HOH   0.0000 
460 O      -27.6802    13.7129    43.2472 O.3   154 HOH   0.0000 
461 H1     -26.7202    13.7129    43.2472 H     154 HOH   0.0000 
462 H2     -27.9705    14.3600    43.8943 H     154 HOH   0.0000 
463 O      -20.6005    25.9863    21.4724 O.3   155 HOH   0.0000 
464 H1     -19.6405    25.9863    21.4724 H     155 HOH   0.0000 
465 H2     -20.8908    26.6333    22.1194 H     155 HOH   0.0000 
466 O      -21.2112    13.5914    32.0111 O.3   156 HOH   0.0000 
467 H1     -20.2512    13.5914    32.0111 H     156 HOH   0.0000 
468 H2     -21.5015    14.2384    32.6581 H     156 HOH   0.0000 
469 O        5.8574    36.1442    33.1266 O.3   157 HOH   0.0000 
470 H1       6.8174    36.1442    33.1266 H     157 HOH   0.0000 
471 H2       5.5671    36.7912    33.7736 H     157 HOH   0.0000 
472 O      -15.7045    29.2384    32.7175 O.3   158 HOH   0.0000 
473 H1     -14.7445    29.2384    32.7175 H     158 HOH   0.0000 
474 H2     -15.9948    29.8855    33.3646 H     158 HOH   0.0000 
475 O        8.1615     7.6720    25.4363 O.3   159 HOH   0.0000 
476 H1       9.1215     7.6720    25.4363 H     159 HOH   0.0000 
477 H2       7.8712     8.3191    26.0833 H     159 HOH   0.0000 
478 O       -8.0274    25.1292    16.1193 O.3   160 HOH   0.0000 
479 H1      -7.0674    25.1292    16.1193 H     160 HOH   0.0000 
480 H2      -8.3177    25.7762    16.7663 H     160 HOH   0.0000 
481 O      -10.1034    -4.4515    12.8621 O.3   161 HOH   0.0000 
482 H1      -9.1434    -4.4515    12.8621 H     161 HOH   0.0000 
483 H2     -10.3937    -3.8044    13.5091 H     161 HOH   0.0000 
484 O        2.7506    33.0636    25.9385 O.3   162 HOH   0.0000 
485 H1       3.7106    33.0636    25.9385 H     162 HOH   0.0000 
486 H2       2.4603    33.7107    26.5855 H     162 HOH   0.0000 
487 O      -13.2615     0.3410    33.1665 O.3   163 HOH   0.0000 
488 H1     -12.3015     0.3410    33.1665 H     163 HOH   0.0000 
489 H2     -13.5518     0.9880    33.8135 H     163 HOH   0.0000 
490 O       14.1071    33.2180    36.7512 O.3   164 HOH   0.0000 
491 H1      15.0671    33.2180    36.7512 H     164 HOH   0.0000 
492 H2      13.8169    33.8651    37.3982 H     164 HOH   0.0000 
493 O      -13.9827    13.7053    48.3919 O.3   165 HOH   0.0000 
494 H1     -13.0227    13.7053    48.3919 H     165 HOH   0.0000 
495 H2     -14.2730    14.3523    49.0389 H     165 HOH   0.0000 
496 O       17.7214    31.2821    42.5863 O.3   166 HOH   0.0000 
497 H1      18.6814    31.2821    42.5863 H     166 HOH   0.0000 
498 H2      17.4312    31.9291    43.2333 H     166 HOH   0.0000 
499 O       15.0426    23.7775    49.7184 O.3   167 HOH   0.0000 
500 H1      16.0026    23.7775    49.7184 H     167 HOH   0.0000 
501 H2      14.7523    24.4246    50.3655 H     167 HOH   0.0000 
502 O        8.0575    20.2454    29.4211 O.3   168 HOH   0.0000 
503 H1       9.0175    20.2454    29.4211 H     168 HOH   0.0000 
504 H2       7.7672    20.8924    30.0682 H     168 HOH   0.0000 
505 O       14.3212    13.7889    43.7083 O.3   169 HOH   0.0000 
506 H1      15.2812    13.7889    43.7083 H     169 HOH   0.0000 
507 H2      14.0309    14.4360    44.3554 H     169 HOH   0.0000 
508 O       -7.9320    17.2706     9.2129 O.3   170 HOH   0.0000 
509 H1      -6.9720    17.2706     9.2129 H     170 HOH   0.0000 
510 H2      -8.2223    17.9177     9.8600 H     170 HOH   0.0000 
511 O        2.1044     2.8218    25.5965 O.3   171 HOH   0.0000 
512 H1       3.0644     2.8218    25.5965 H     171 HOH   0.0000 
513 H2       1.8141     3.4689    26.2435 H     171 HOH   0.0000 
514 O      -20.6408     2.7310    29.7969 O.3   172 HOH   0.0000 
515 H1     -19.6808     2.7310    29.7969 H     172 HOH   0.0000 
516 H2     -20.9311     3.3781    30.4439 H     172 HOH   0.0000 
517 O      -17.1562    -0.9022    10.7631 O.3   173 HOH   0.0000 
518 H1     -16.1962    -0.9022    10.7631 H     173 HOH   0.0000 
519 H2     -17.4465    -0.2551    11.4101 H     173 HOH   0.0000 
520 O        5.1913    17.5581    37.0778 O.3   174 HOH  -0.8340 
521 H1       5.1747    16.6185    37.2598 H     174 HOH   0.4170 
522 H2       4.6255    17.9423    37.7474 H     174 HOH   0.4170 
523 O        3.1249     6.2889    15.4026 O.3   175 HOH   0.0000 
524 H1       4.0849     6.2889    15.4026 H     175 HOH   0.0000 
525 H2       2.8346     6.9359    16.0497 H     175 HOH   0.0000 
526 O      -19.5182     9.5161    15.0712 O.3   176 HOH   0.0000 
527 H1     -18.5582     9.5161    15.0712 H     176 HOH   0.0000 
528 H2     -19.8084    10.1631    15.7182 H     176 HOH   0.0000 
529 O       13.1949    31.4980    31.9850 O.3   177 HOH   0.0000 
530 H1      14.1549    31.4980    31.9850 H     177 HOH   0.0000 
531 H2      12.9046    32.1451    32.6320 H     177 HOH   0.0000 
532 O      -12.8808    29.0854    35.5708 O.3   178 HOH   0.0000 
533 H1     -11.9208    29.0854    35.5708 H     178 HOH   0.0000 
534 H2     -13.1711    29.7324    36.2179 H     178 HOH   0.0000 
535 O       18.8875    14.8551    33.8695 O.3   179 HOH   0.0000 
536 H1      19.8475    14.8551    33.8695 H     179 HOH   0.0000 
537 H2      18.5973    15.5022    34.5165 H     179 HOH   0.0000 
538 O       -0.0503     9.7467    36.4554 O.3   180 HOH   0.0000 
539 H1       0.9097     9.7467    36.4554 H     180 HOH   0.0000 
540 H2      -0.3406    10.3938    37.1025 H     180 HOH   0.0000 
541 O       -4.6940     6.6637     8.6671 O.3   181 HOH   0.0000 
542 H1      -3.7340     6.6637     8.6671 H     181 HOH   0.0000 
543 H2      -4.9843     7.3108     9.3142 H     181 HOH   0.0000 
544 O       -9.0613    32.2769    27.3575 O.3   182 HOH   0.0000 
545 H1      -8.1013    32.2769    27.3575 H     182 HOH   0.0000 
546 H2      -9.3515    32.9239    28.0046 H     182 HOH   0.0000 
547 O       -2.0850     1.4653    18.6285 O.3   183 HOH   0.0000 
548 H1      -1.1250     1.4653    18.6285 H     183 HOH   0.0000 
549 H2      -2.3752     2.1123    19.2755 H     183 HOH   0.0000 
550 O      -30.1033    13.7210    28.4420 O.3   184 HOH   0.0000 
551 H1     -29.1433    13.7210    28.4420 H     184 HOH   0.0000 
552 H2     -30.3936    14.3680    29.0890 H     184 HOH   0.0000 
553 O       -3.1209    12.0477    25.1406 O.3   185 HOH   0.0000 
554 H1      -2.1609    12.0477    25.1406 H     185 HOH   0.0000 
555 H2      -3.4111    12.6947    25.7876 H     185 HOH   0.0000 
556 O      -14.9522    28.0132    34.6790 O.3   186 HOH   0.0000 
557 H1     -13.9922    28.0132    34.6790 H     186 HOH   0.0000 
558 H2     -15.2425    28.6602    35.3260 H     186 HOH   0.0000 
559 O        7.3559    17.2764    32.1238 O.3   187 HOH   0.0000 
560 H1       8.3159    17.2764    32.1238 H     187 HOH   0.0000 
561 H2       7.0656    17.9234    32.7709 H     187 HOH   0.0000 
562 O        3.9597    10.3325    47.0811 O.3   188 HOH   0.0000 
563 H1       4.9197    10.3325    47.0811 H     188 HOH   0.0000 
564 H2       3.6694    10.9795    47.7281 H     188 HOH   0.0000 
565 O      -11.9974    29.6895    42.8740 O.3   189 HOH   0.0000 
566 H1     -11.0374    29.6895    42.8740 H     189 HOH   0.0000 
567 H2     -12.2877    30.3365    43.5211 H     189 HOH   0.0000 
568 O       13.5080    18.9988    54.0256 O.3   190 HOH   0.0000 
569 H1      14.4680    18.9988    54.0256 H     190 HOH   0.0000 
570 H2      13.2178    19.6459    54.6726 H     190 HOH   0.0000 
571 O       -5.3285     9.3770    11.0770 O.3   191 HOH   0.0000 
572 H1      -4.3685     9.3770    11.0770 H     191 HOH   0.0000 
573 H2      -5.6188    10.0240    11.7241 H     191 HOH   0.0000 
574 O      -18.7949     4.4981    37.8179 O.3   192 HOH   0.0000 
575 H1     -17.8349     4.4981    37.8179 H     192 HOH   0.0000 
576 H2     -19.0852     5.1451    38.4649 H     192 HOH   0.0000 
577 O        0.8437    11.9784    47.3332 O.3   193 HOH  -0.8340 
578 H1      -0.0388    12.3428    47.2645 H     193 HOH   0.4170 
579 H2       0.8077    11.4053    48.0989 H     193 HOH   0.4170 
580 O       14.2582    30.6310    34.3410 O.3   194 HOH   0.0000 
581 H1      15.2182    30.6310    34.3410 H     194 HOH   0.0000 
582 H2      13.9679    31.2781    34.9880 H     194 HOH   0.0000 
583 O      -19.8706     4.1430    16.3382 O.3   195 HOH   0.0000 
584 H1     -18.9106     4.1430    16.3382 H     195 HOH   0.0000 
585 H2     -20.1609     4.7900    16.9853 H     195 HOH   0.0000 
586 O       14.1442    34.5721    47.5126 O.3   196 HOH   0.0000 
587 H1      15.1042    34.5721    47.5126 H     196 HOH   0.0000 
588 H2      13.8539    35.2192    48.1597 H     196 HOH   0.0000 
589 O       -6.0916    14.3594    49.6318 O.3   197 HOH  -0.8340 
590 H1      -5.8556    14.3692    48.7042 H     197 HOH   0.4170 
591 H2      -6.0257    15.2741    49.9059 H     197 HOH   0.4170 
592 O       -3.1763     8.2917    41.4463 O.3   198 HOH   0.0000 
593 H1      -2.2163     8.2917    41.4463 H     198 HOH   0.0000 
594 H2      -3.4666     8.9387    42.0934 H     198 HOH   0.0000 
595 O       -7.2634    34.0281    38.9006 O.3   199 HOH   0.0000 
596 H1      -6.3034    34.0281    38.9006 H     199 HOH   0.0000 
597 H2      -7.5537    34.6751    39.5476 H     199 HOH   0.0000 
598 O       14.4774    35.4167    50.6480 O.3   200 HOH   0.0000 
599 H1      15.4374    35.4167    50.6480 H     200 HOH   0.0000 
600 H2      14.1871    36.0638    51.2950 H     200 HOH   0.0000 
601 O      -12.4992    30.7921    33.3937 O.3   201 HOH   0.0000 
602 H1     -11.5392    30.7921    33.3937 H     201 HOH   0.0000 
603 H2     -12.7895    31.4391    34.0408 H     201 HOH   0.0000 
604 O        7.6863    24.1450    19.8246 O.3   202 HOH   0.0000 
605 H1       8.6463    24.1450    19.8246 H     202 HOH   0.0000 
606 H2       7.3960    24.7921    20.4716 H     202 HOH   0.0000 
607 O        0.9097    35.7375    30.3678 O.3   203 HOH   0.0000 
608 H1       1.8697    35.7375    30.3678 H     203 HOH   0.0000 
609 H2       0.6194    36.3846    31.0148 H     203 HOH   0.0000 
610 O      -20.0316    13.9642    15.8465 O.3   204 HOH   0.0000 
611 H1     -19.0716    13.9642    15.8465 H     204 HOH   0.0000 
612 H2     -20.3219    14.6112    16.4935 H     204 HOH   0.0000 
613 O      -23.3544     2.5750    29.2186 O.3   205 HOH   0.0000 
614 H1     -22.3944     2.5750    29.2186 H     205 HOH   0.0000 
615 H2     -23.6447     3.2220    29.8657 H     205 HOH   0.0000 
616 O       10.3466    34.7113    50.1009 O.3   206 HOH   0.0000 
617 H1      11.3066    34.7113    50.1009 H     206 HOH   0.0000 
618 H2      10.0563    35.3584    50.7480 H     206 HOH   0.0000 
619 O      -23.0145    26.3051    22.5499 O.3   207 HOH   0.0000 
620 H1     -22.0545    26.3051    22.5499 H     207 HOH   0.0000 
621 H2     -23.3048    26.9522    23.1969 H     207 HOH   0.0000 
622 O        2.4118     4.1180    21.8724 O.3   208 HOH   0.0000 
623 H1       3.3718     4.1180    21.8724 H     208 HOH   0.0000 
624 H2       2.1216     4.7651    22.5194 H     208 HOH   0.0000 
625 O      -28.1103    14.1410    49.1915 O.3   209 HOH   0.0000 
626 H1     -27.1503    14.1410    49.1915 H     209 HOH   0.0000 
627 H2     -28.4006    14.7880    49.8386 H     209 HOH   0.0000 
628 O        5.4622    14.0419    10.5506 O.3   210 HOH   0.0000 
629 H1       6.4222    14.0419    10.5506 H     210 HOH   0.0000 
630 H2       5.1720    14.6889    11.1977 H     210 HOH   0.0000 
631 O       16.4969    12.5656    27.0672 O.3   211 HOH   0.0000 
632 H1      17.4569    12.5656    27.0672 H     211 HOH   0.0000 
633 H2      16.2066    13.2126    27.7143 H     211 HOH   0.0000 
634 O      -14.9657    28.7092    39.5031 O.3   212 HOH   0.0000 
635 H1     -14.0057    28.7092    39.5031 H     212 HOH   0.0000 
636 H2     -15.2559    29.3563    40.1502 H     212 HOH   0.0000 
637 O        2.8235    13.5830    30.8780 O.3   213 HOH   0.0000 
638 H1       3.7835    13.5830    30.8780 H     213 HOH   0.0000 
639 H2       2.5333    14.2300    31.5251 H     213 HOH   0.0000 
640 O        2.4173    33.8305    40.9216 O.3   214 HOH   0.0000 
641 H1       3.3773    33.8305    40.9216 H     214 HOH   0.0000 
642 H2       2.1270    34.4775    41.5686 H     214 HOH   0.0000 
643 O       22.1603    12.4397    32.2669 O.3   215 HOH   0.0000 
644 H1      23.1203    12.4397    32.2669 H     215 HOH   0.0000 
645 H2      21.8700    13.0867    32.9140 H     215 HOH   0.0000 
646 O        0.3504     0.8421    26.3987 O.3   216 HOH   0.0000 
647 H1       1.3104     0.8421    26.3987 H     216 HOH   0.0000 
648 H2       0.0602     1.4892    27.0458 H     216 HOH   0.0000 
649 O      -26.4021    11.8917    22.6388 O.3   217 HOH   0.0000 
650 H1     -25.4421    11.8917    22.6388 H     217 HOH   0.0000 
651 H2     -26.6924    12.5387    23.2859 H     217 HOH   0.0000 
652 O       23.2150    13.6304    34.2376 O.3   218 HOH   0.0000 
653 H1      24.1750    13.6304    34.2376 H     218 HOH   0.0000 
654 H2      22.9247    14.2774    34.8847 H     218 HOH   0.0000 
655 O       -4.8520     2.2601    29.8173 O.3   219 HOH   0.0000 
656 H1      -3.8920     2.2601    29.8173 H     219 HOH   0.0000 
657 H2      -5.1423     2.9071    30.4644 H     219 HOH   0.0000 
658 O       -7.1402     0.0885     7.7106 O.3   220 HOH   0.0000 
659 H1      -6.1802     0.0885     7.7106 H     220 HOH   0.0000 
660 H2      -7.4304     0.7356     8.3576 H     220 HOH   0.0000 
661 O       13.5847    37.6862    41.5476 O.3   221 HOH   0.0000 
662 H1      14.5447    37.6862    41.5476 H     221 HOH   0.0000 
663 H2      13.2944    38.3333    42.1946 H     221 HOH   0.0000 
664 O      -13.1546    27.5503    47.2371 O.3   222 HOH   0.0000 
665 H1     -12.1946    27.5503    47.2371 H     222 HOH   0.0000 
666 H2     -13.4449    28.1974    47.8842 H     222 HOH   0.0000 
667 O        2.8119    11.0972    26.2172 O.3   223 HOH   0.0000 
668 H1       3.7719    11.0972    26.2172 H     223 HOH   0.0000 
669 H2       2.5216    11.7443    26.8642 H     223 HOH   0.0000 
670 O       21.0667    15.4551    33.3669 O.3   224 HOH   0.0000 
671 H1      22.0267    15.4551    33.3669 H     224 HOH   0.0000 
672 H2      20.7765    16.1021    34.0139 H     224 HOH   0.0000 
673 O       -8.6960    22.4916    12.3482 O.3   225 HOH   0.0000 
674 H1      -7.7360    22.4916    12.3482 H     225 HOH   0.0000 
675 H2      -8.9863    23.1386    12.9952 H     225 HOH   0.0000 
676 O        8.1163    22.6458    25.4906 O.3   226 HOH   0.0000 
677 H1       9.0763    22.6458    25.4906 H     226 HOH   0.0000 
678 H2       7.8260    23.2929    26.1376 H     226 HOH   0.0000 
679 O        5.6756    12.4897    22.9229 O.3   227 HOH   0.0000 
680 H1       6.6356    12.4897    22.9229 H     227 HOH   0.0000 
681 H2       5.3853    13.1367    23.5699 H     227 HOH   0.0000 
682 O        6.9195    28.7865    57.7581 O.3   228 HOH   0.0000 
683 H1       7.8795    28.7865    57.7581 H     228 HOH   0.0000 
684 H2       6.6292    29.4336    58.4052 H     228 HOH   0.0000 
685 O       -8.4939     0.5890    30.1238 O.3   229 HOH   0.0000 
686 H1      -7.5339     0.5890    30.1238 H     229 HOH   0.0000 
687 H2      -8.7842     1.2361    30.7708 H     229 HOH   0.0000 
688 O       -2.5836     3.1595    10.1436 O.3   230 HOH   0.0000 
689 H1      -1.6236     3.1595    10.1436 H     230 HOH   0.0000 
690 H2      -2.8738     3.8065    10.7907 H     230 HOH   0.0000 
691 O       -1.1305    10.1330    45.8373 O.3   231 HOH  -0.8340 
692 H1      -0.2316    10.0878    46.1629 H     231 HOH   0.4170 
693 H2      -1.0855    10.7302    45.0906 H     231 HOH   0.4170 
694 O        5.0405    34.5089    43.3003 O.3   232 HOH   0.0000 
695 H1       6.0005    34.5089    43.3003 H     232 HOH   0.0000 
696 H2       4.7502    35.1560    43.9473 H     232 HOH   0.0000 
697 O       -4.7849    -1.1925    11.5951 O.3   233 HOH   0.0000 
698 H1      -3.8249    -1.1925    11.5951 H     233 HOH   0.0000 
699 H2      -5.0752    -0.5454    12.2421 H     233 HOH   0.0000 
700 O       11.3557    38.5698    51.3179 O.3   234 HOH   0.0000 
701 H1      12.3157    38.5698    51.3179 H     234 HOH   0.0000 
702 H2      11.0654    39.2169    51.9649 H     234 HOH   0.0000 
703 O       -9.4030    -8.8210    16.1914 O.3   235 HOH   0.0000 
704 H1      -8.4430    -8.8210    16.1914 H     235 HOH   0.0000 
705 H2      -9.6932    -8.1739    16.8385 H     235 HOH   0.0000 
706 O       -0.7677    19.6274    53.2786 O.3   236 HOH   0.0000 
707 H1       0.1923    19.6274    53.2786 H     236 HOH   0.0000 
708 H2      -1.0580    20.2744    53.9257 H     236 HOH   0.0000 
709 O      -27.9487    15.4732    41.0358 O.3   237 HOH   0.0000 
710 H1     -26.9887    15.4732    41.0358 H     237 HOH   0.0000 
711 H2     -28.2389    16.1203    41.6829 H     237 HOH   0.0000 
712 O        4.0223    39.5820    49.6062 O.3   238 HOH   0.0000 
713 H1       4.9823    39.5820    49.6062 H     238 HOH   0.0000 
714 H2       3.7320    40.2291    50.2533 H     238 HOH   0.0000 
715 O       -4.5855     6.2403    41.0259 O.3   239 HOH   0.0000 
716 H1      -3.6255     6.2403    41.0259 H     239 HOH   0.0000 
717 H2      -4.8757     6.8874    41.6729 H     239 HOH   0.0000 
718 O       -9.8506    -2.2165    31.2276 O.3   240 HOH   0.0000 
719 H1      -8.8906    -2.2165    31.2276 H     240 HOH   0.0000 
720 H2     -10.1409    -1.5695    31.8747 H     240 HOH   0.0000 
721 O      -18.8007    12.9713    52.4461 O.3   241 HOH   0.0000 
722 H1     -17.8407    12.9713    52.4461 H     241 HOH   0.0000 
723 H2     -19.0910    13.6183    53.0931 H     241 HOH   0.0000 
724 O       -4.1416    -6.5661    17.2982 O.3   242 HOH   0.0000 
725 H1      -3.1816    -6.5661    17.2982 H     242 HOH   0.0000 
726 H2      -4.4319    -5.9190    17.9453 H     242 HOH   0.0000 
727 O      -14.8989    21.7983    13.6949 O.3   243 HOH   0.0000 
728 H1     -13.9389    21.7983    13.6949 H     243 HOH   0.0000 
729 H2     -15.1891    22.4453    14.3420 H     243 HOH   0.0000 
730 O       -4.6830     7.2103    11.6127 O.3   244 HOH   0.0000 
731 H1      -3.7230     7.2103    11.6127 H     244 HOH   0.0000 
732 H2      -4.9733     7.8573    12.2598 H     244 HOH   0.0000 
733 O      -13.4990    32.9613    26.1281 O.3   245 HOH   0.0000 
734 H1     -12.5390    32.9613    26.1281 H     245 HOH   0.0000 
735 H2     -13.7893    33.6084    26.7752 H     245 HOH   0.0000 
736 O      -19.7843     3.1334    11.0121 O.3   246 HOH   0.0000 
737 H1     -18.8243     3.1334    11.0121 H     246 HOH   0.0000 
738 H2     -20.0746     3.7804    11.6591 H     246 HOH   0.0000 
739 O        4.0221    12.7928    33.7339 O.3   247 HOH   0.0000 
740 H1       4.9821    12.7928    33.7339 H     247 HOH   0.0000 
741 H2       3.7318    13.4398    34.3809 H     247 HOH   0.0000 
742 O      -27.2804    18.7355    31.7077 O.3   248 HOH   0.0000 
743 H1     -26.3204    18.7355    31.7077 H     248 HOH   0.0000 
744 H2     -27.5706    19.3825    32.3547 H     248 HOH   0.0000 
745 O        1.3318    33.2915    21.2918 O.3   249 HOH   0.0000 
746 H1       2.2918    33.2915    21.2918 H     249 HOH   0.0000 
747 H2       1.0416    33.9385    21.9388 H     249 HOH   0.0000 
748 O      -15.7991    -0.7136    33.4279 O.3   250 HOH   0.0000 
749 H1     -14.8391    -0.7136    33.4279 H     250 HOH   0.0000 
750 H2     -16.0894    -0.0666    34.0750 H     250 HOH   0.0000 
751 O      -11.5553    -1.8205    33.3498 O.3   251 HOH   0.0000 
752 H1     -10.5953    -1.8205    33.3498 H     251 HOH   0.0000 
753 H2     -11.8456    -1.1735    33.9969 H     251 HOH   0.0000 
754 O      -20.0137    28.2459    20.2210 O.3   252 HOH   0.0000 
755 H1     -19.0537    28.2459    20.2210 H     252 HOH   0.0000 
756 H2     -20.3040    28.8930    20.8680 H     252 HOH   0.0000 
757 O       -9.0092    -2.0983    11.7515 O.3   253 HOH   0.0000 
758 H1      -8.0492    -2.0983    11.7515 H     253 HOH   0.0000 
759 H2      -9.2995    -1.4513    12.3986 H     253 HOH   0.0000 
760 O       -3.0787    10.7377    47.7818 O.3   254 HOH  -0.8340 
761 H1      -2.4220    10.3583    47.1978 H     254 HOH   0.4170 
762 H2      -3.6673    11.2191    47.2005 H     254 HOH   0.4170 
763 O       10.8695    31.8711    26.8275 O.3   255 HOH   0.0000 
764 H1      11.8295    31.8711    26.8275 H     255 HOH   0.0000 
765 H2      10.5792    32.5182    27.4746 H     255 HOH   0.0000 
766 O        5.9104    15.8999    30.1949 O.3   256 HOH   0.0000 
767 H1       6.8704    15.8999    30.1949 H     256 HOH   0.0000 
768 H2       5.6201    16.5470    30.8420 H     256 HOH   0.0000 
769 O      -13.9135    28.4962    17.7248 O.3   257 HOH   0.0000 
770 H1     -12.9535    28.4962    17.7248 H     257 HOH   0.0000 
771 H2     -14.2038    29.1433    18.3719 H     257 HOH   0.0000 
772 O      -12.6582    30.3333    28.9939 O.3   258 HOH   0.0000 
773 H1     -11.6982    30.3333    28.9939 H     258 HOH   0.0000 
774 H2     -12.9485    30.9804    29.6410 H     258 HOH   0.0000 
775 O       -2.9545    15.1024    10.9241 O.3   259 HOH   0.0000 
776 H1      -1.9945    15.1024    10.9241 H     259 HOH   0.0000 
777 H2      -3.2448    15.7494    11.5712 H     259 HOH   0.0000 
778 O        0.8902    36.8031    32.8804 O.3   260 HOH   0.0000 
779 H1       1.8502    36.8031    32.8804 H     260 HOH   0.0000 
780 H2       0.5999    37.4501    33.5274 H     260 HOH   0.0000 
781 O      -24.8192    23.8648    25.6838 O.3   261 HOH   0.0000 
782 H1     -23.8592    23.8648    25.6838 H     261 HOH   0.0000 
783 H2     -25.1095    24.5119    26.3308 H     261 HOH   0.0000 
784 O       -0.2485    32.1664    46.4236 O.3   262 HOH   0.0000 
785 H1       0.7115    32.1664    46.4236 H     262 HOH   0.0000 
786 H2      -0.5387    32.8134    47.0707 H     262 HOH   0.0000 
787 O       -0.7067    30.9821    54.1506 O.3   263 HOH   0.0000 
788 H1       0.2533    30.9821    54.1506 H     263 HOH   0.0000 
789 H2      -0.9970    31.6292    54.7976 H     263 HOH   0.0000 
790 O        2.8249    21.9578    11.0374 O.3   264 HOH   0.0000 
791 H1       3.7849    21.9578    11.0374 H     264 HOH   0.0000 
792 H2       2.5346    22.6049    11.6845 H     264 HOH   0.0000 
793 O       19.5183    14.5375    37.8037 O.3   265 HOH   0.0000 
794 H1      20.4783    14.5375    37.8037 H     265 HOH   0.0000 
795 H2      19.2280    15.1846    38.4508 H     265 HOH   0.0000 
796 O        4.4912    14.8559    34.8394 O.3   266 HOH  -0.8340 
797 H1       3.7508    15.4612    34.8792 H     266 HOH   0.4170 
798 H2       4.5929    14.6620    33.9075 H     266 HOH   0.4170 
799 O      -19.9166    19.9055    49.5726 O.3   267 HOH   0.0000 
800 H1     -18.9566    19.9055    49.5726 H     267 HOH   0.0000 
801 H2     -20.2069    20.5525    50.2196 H     267 HOH   0.0000 
802 O      -30.2223    27.6525    36.3588 O.3   268 HOH   0.0000 
803 H1     -29.2623    27.6525    36.3588 H     268 HOH   0.0000 
804 H2     -30.5125    28.2996    37.0058 H     268 HOH   0.0000 
805 O       -3.2066    31.0764    16.8643 O.3   269 HOH   0.0000 
806 H1      -2.2466    31.0764    16.8643 H     269 HOH   0.0000 
807 H2      -3.4968    31.7235    17.5114 H     269 HOH   0.0000 
808 O       -0.2461    15.9513    50.6843 O.3   270 HOH  -0.8340 
809 H1       0.5873    16.4160    50.7605 H     270 HOH   0.4170 
810 H2      -0.7381    16.2116    51.4631 H     270 HOH   0.4170 
811 O       12.5006    16.8247    36.9743 O.3   271 HOH   0.0000 
812 H1      13.4606    16.8247    36.9743 H     271 HOH   0.0000 
813 H2      12.2103    17.4718    37.6214 H     271 HOH   0.0000 
814 O      -17.6633    18.6341    15.6025 O.3   272 HOH   0.0000 
815 H1     -16.7033    18.6341    15.6025 H     272 HOH   0.0000 
816 H2     -17.9536    19.2811    16.2495 H     272 HOH   0.0000 
817 O      -29.5542    16.1480    36.9121 O.3   273 HOH   0.0000 
818 H1     -28.5942    16.1480    36.9121 H     273 HOH   0.0000 
819 H2     -29.8444    16.7950    37.5591 H     273 HOH   0.0000 
820 O       -8.7490    25.7554    46.7019 O.3   274 HOH   0.0000 
821 H1      -7.7890    25.7554    46.7019 H     274 HOH   0.0000 
822 H2      -9.0393    26.4025    47.3489 H     274 HOH   0.0000 
823 O      -17.6458    31.0869    26.7388 O.3   275 HOH   0.0000 
824 H1     -16.6858    31.0869    26.7388 H     275 HOH   0.0000 
825 H2     -17.9361    31.7339    27.3859 H     275 HOH   0.0000 
826 O        8.3031    21.1751    21.7162 O.3   276 HOH   0.0000 
827 H1       9.2631    21.1751    21.7162 H     276 HOH   0.0000 
828 H2       8.0128    21.8221    22.3633 H     276 HOH   0.0000 
829 O        8.9753    14.6503    34.7945 O.3   277 HOH   0.0000 
830 H1       9.9353    14.6503    34.7945 H     277 HOH   0.0000 
831 H2       8.6850    15.2974    35.4415 H     277 HOH   0.0000 
832 O      -25.3325    30.7959    27.6558 O.3   278 HOH   0.0000 
833 H1     -24.3725    30.7959    27.6558 H     278 HOH   0.0000 
834 H2     -25.6227    31.4429    28.3028 H     278 HOH   0.0000 
835 O       -6.0569    35.5393    35.0595 O.3   279 HOH   0.0000 
836 H1      -5.0969    35.5393    35.0595 H     279 HOH   0.0000 
837 H2      -6.3472    36.1864    35.7066 H     279 HOH   0.0000 
838 O        4.5627     7.0146    13.1588 O.3   280 HOH   0.0000 
839 H1       5.5227     7.0146    13.1588 H     280 HOH   0.0000 
840 H2       4.2725     7.6616    13.8059 H     280 HOH   0.0000 
841 O       -4.1684    26.3564    45.3769 O.3   281 HOH   0.0000 
842 H1      -3.2084    26.3564    45.3769 H     281 HOH   0.0000 
843 H2      -4.4587    27.0034    46.0240 H     281 HOH   0.0000 
844 O      -23.8579    18.8909    22.4601 O.3   282 HOH   0.0000 
845 H1     -22.8979    18.8909    22.4601 H     282 HOH   0.0000 
846 H2     -24.1481    19.5380    23.1072 H     282 HOH   0.0000 
847 O      -12.7779    32.0475    43.4322 O.3   283 HOH   0.0000 
848 H1     -11.8179    32.0475    43.4322 H     283 HOH   0.0000 
849 H2     -13.0682    32.6945    44.0792 H     283 HOH   0.0000 
850 O      -25.1431    11.9656    20.1223 O.3   284 HOH   0.0000 
851 H1     -24.1831    11.9656    20.1223 H     284 HOH   0.0000 
852 H2     -25.4333    12.6126    20.7694 H     284 HOH   0.0000 
853 O        8.9183    34.2951    42.9676 O.3   285 HOH   0.0000 
854 H1       9.8783    34.2951    42.9676 H     285 HOH   0.0000 
855 H2       8.6280    34.9422    43.6147 H     285 HOH   0.0000 
856 O       -8.1983    -3.6627     9.7833 O.3   286 HOH   0.0000 
857 H1      -7.2383    -3.6627     9.7833 H     286 HOH   0.0000 
858 H2      -8.4886    -3.0156    10.4304 H     286 HOH   0.0000 
859 O        2.7332     1.6750    23.3176 O.3   287 HOH   0.0000 
860 H1       3.6932     1.6750    23.3176 H     287 HOH   0.0000 
861 H2       2.4430     2.3220    23.9647 H     287 HOH   0.0000 
862 O       -1.5115    35.2660    38.7857 O.3   288 HOH   0.0000 
863 H1      -0.5515    35.2660    38.7857 H     288 HOH   0.0000 
864 H2      -1.8018    35.9131    39.4328 H     288 HOH   0.0000 
865 O      -12.9505    31.3805    37.2412 O.3   289 HOH   0.0000 
866 H1     -11.9905    31.3805    37.2412 H     289 HOH   0.0000 
867 H2     -13.2408    32.0276    37.8883 H     289 HOH   0.0000 
868 O       -2.0449    28.9300    53.7400 O.3   290 HOH   0.0000 
869 H1      -1.0849    28.9300    53.7400 H     290 HOH   0.0000 
870 H2      -2.3352    29.5770    54.3871 H     290 HOH   0.0000 
871 O       -4.5707     4.3283    37.0789 O.3   291 HOH   0.0000 
872 H1      -3.6107     4.3283    37.0789 H     291 HOH   0.0000 
873 H2      -4.8609     4.9753    37.7260 H     291 HOH   0.0000 
874 O       -7.3299     5.2181    41.8890 O.3   292 HOH   0.0000 
875 H1      -6.3699     5.2181    41.8890 H     292 HOH   0.0000 
876 H2      -7.6202     5.8652    42.5361 H     292 HOH   0.0000 
877 O      -15.8487    28.9648    36.8643 O.3   293 HOH   0.0000 
878 H1     -14.8887    28.9648    36.8643 H     293 HOH   0.0000 
879 H2     -16.1389    29.6118    37.5113 H     293 HOH   0.0000 
880 O       -0.4987    27.8707    11.0291 O.3   294 HOH   0.0000 
881 H1       0.4613    27.8707    11.0291 H     294 HOH   0.0000 
882 H2      -0.7889    28.5177    11.6761 H     294 HOH   0.0000 
883 O       -8.5546     4.1418    46.7987 O.3   295 HOH   0.0000 
884 H1      -7.5946     4.1418    46.7987 H     295 HOH   0.0000 
885 H2      -8.8449     4.7889    47.4457 H     295 HOH   0.0000 
886 O       15.4725    36.6140    48.9787 O.3   296 HOH   0.0000 
887 H1      16.4325    36.6140    48.9787 H     296 HOH   0.0000 
888 H2      15.1823    37.2611    49.6257 H     296 HOH   0.0000 
889 O        1.2741    17.0576     9.1172 O.3   297 HOH   0.0000 
890 H1       2.2341    17.0576     9.1172 H     297 HOH   0.0000 
891 H2       0.9838    17.7047     9.7643 H     297 HOH   0.0000 
892 O       -3.1421    12.3692    20.8931 O.3   298 HOH   0.0000 
893 H1      -2.1821    12.3692    20.8931 H     298 HOH   0.0000 
894 H2      -3.4324    13.0163    21.5402 H     298 HOH   0.0000 
895 O      -27.3966    23.7811    26.5515 O.3   299 HOH   0.0000 
896 H1     -26.4366    23.7811    26.5515 H     299 HOH   0.0000 
897 H2     -27.6869    24.4282    27.1986 H     299 HOH   0.0000 
898 O        1.7986     4.7268    18.9329 O.3   300 HOH   0.0000 
899 H1       2.7586     4.7268    18.9329 H     300 HOH   0.0000 
900 H2       1.5083     5.3739    19.5799 H     300 HOH   0.0000 
901 O      -17.4122    29.3342    20.4840 O.3   301 HOH   0.0000 
902 H1     -16.4522    29.3342    20.4840 H     301 HOH   0.0000 
903 H2     -17.7025    29.9813    21.1310 H     301 HOH   0.0000 
904 O        7.4308    20.4230    25.7934 O.3   302 HOH   0.0000 
905 H1       8.3908    20.4230    25.7934 H     302 HOH   0.0000 
906 H2       7.1405    21.0700    26.4405 H     302 HOH   0.0000 
907 O      -24.2808    28.0003    24.4164 O.3   303 HOH   0.0000 
908 H1     -23.3208    28.0003    24.4164 H     303 HOH   0.0000 
909 H2     -24.5711    28.6473    25.0634 H     303 HOH   0.0000 
910 O       -7.1051    20.5838    12.2938 O.3   304 HOH   0.0000 
911 H1      -6.1451    20.5838    12.2938 H     304 HOH   0.0000 
912 H2      -7.3954    21.2309    12.9408 H     304 HOH   0.0000 
913 O       11.8480    17.8626    24.9475 O.3   305 HOH   0.0000 
914 H1      12.8080    17.8626    24.9475 H     305 HOH   0.0000 
915 H2      11.5578    18.5096    25.5945 H     305 HOH   0.0000 
916 O       -8.8781    33.7253    30.5885 O.3   306 HOH   0.0000 
917 H1      -7.9181    33.7253    30.5885 H     306 HOH   0.0000 
918 H2      -9.1683    34.3723    31.2356 H     306 HOH   0.0000 
919 O       18.9555    28.9993    33.2413 O.3   307 HOH   0.0000 
920 H1      19.9155    28.9993    33.2413 H     307 HOH   0.0000 
921 H2      18.6653    29.6464    33.8883 H     307 HOH   0.0000 
922 O        0.4876    12.9484    49.7194 O.3   308 HOH  -0.8340 
923 H1       0.5958    13.1323    48.7863 H     308 HOH   0.4170 
924 H2       0.1514    13.7654    50.0877 H     308 HOH   0.4170 
925 O       -3.8586    -5.1728    26.5197 O.3   309 HOH   0.0000 
926 H1      -2.8986    -5.1728    26.5197 H     309 HOH   0.0000 
927 H2      -4.1489    -4.5258    27.1668 H     309 HOH   0.0000 
928 O      -23.7687    12.2949    18.0648 O.3   310 HOH   0.0000 
929 H1     -22.8087    12.2949    18.0648 H     310 HOH   0.0000 
930 H2     -24.0590    12.9419    18.7119 H     310 HOH   0.0000 
931 O        1.8323    13.2959    34.0457 O.3   311 HOH   0.0000 
932 H1       2.7923    13.2959    34.0457 H     311 HOH   0.0000 
933 H2       1.5420    13.9430    34.6928 H     311 HOH   0.0000 
934 O      -17.7605    28.5040    35.4416 O.3   312 HOH   0.0000 
935 H1     -16.8005    28.5040    35.4416 H     312 HOH   0.0000 
936 H2     -18.0508    29.1510    36.0886 H     312 HOH   0.0000 
937 O      -21.9043     4.7693    37.8660 O.3   313 HOH   0.0000 
938 H1     -20.9443     4.7693    37.8660 H     313 HOH   0.0000 
939 H2     -22.1946     5.4164    38.5130 H     313 HOH   0.0000 
940 O       -1.8454    31.7592    47.9982 O.3   314 HOH   0.0000 
941 H1      -0.8854    31.7592    47.9982 H     314 HOH   0.0000 
942 H2      -2.1356    32.4063    48.6452 H     314 HOH   0.0000 
943 O       11.8779    15.5812    51.2153 O.3   315 HOH   0.0000 
944 H1      12.8379    15.5812    51.2153 H     315 HOH   0.0000 
945 H2      11.5876    16.2283    51.8623 H     315 HOH   0.0000 
@<TRIPOS>BOND
  1   1   2  1   
  2   1   3  1   
  3   4   5  1   
  4   4   6  1   
  5   7   8  1   
  6   7   9  1   
  7  10  11  1   
  8  10  12  1   
  9  13  14  1   
 10  13  15  1   
 11  16  17  1   
 12  16  18  1   
 13  19  20  1   
 14  19  21  1   
 15  22  23  1   
 16  22  24  1   
 17  25  26  1   
 18  25  27  1   
 19  28  29  1   
 20  28  30  1   
 21  31  32  1   
 22  31  33  1   
 23  34  35  1   
 24  34  36  1   
 25  37  38  1   
 26  37  39  1   
 27  40  41  1   
 28  40  42  1   
 29  43  44  1   
 30  43  45  1   
 31  46  47  1   
 32  46  48  1   
 33  49  50  1   
 34  49  51  1   
 35  52  53  1   
 36  52  54  1   
 37  55  56  1   
 38  55  57  1   
 39  58  59  1   
 40  58  60  1   
 41  61  62  1   
 42  61  63  1   
 43  64  65  1   
 44  64  66  1   
 45  67  68  1   
 46  67  69  1   
 47  70  71  1   
 48  70  72  1   
 49  73  74  1   
 50  73  75  1   
 51  76  77  1   
 52  76  78  1   
 53  79  80  1   
 54  79  81  1   
 55  82  83  1   
 56  82  84  1   
 57  85  86  1   
 58  85  87  1   
 59  88  89  1   
 60  88  90  1   
 61  91  92  1   
 62  91  93  1   
 63  94  95  1   
 64  94  96  1   
 65  97  98  1   
 66  97  99  1   
 67 100 101  1   
 68 100 102  1   
 69 103 104  1   
 70 103 105  1   
 71 106 107  1   
 72 106 108  1   
 73 109 110  1   
 74 109 111  1   
 75 112 113  1   
 76 112 114  1   
 77 115 116  1   
 78 115 117  1   
 79 118 119  1   
 80 118 120  1   
 81 121 122  1   
 82 121 123  1   
 83 124 125  1   
 84 124 126  1   
 85 127 128  1   
 86 127 129  1   
 87 130 131  1   
 88 130 132  1   
 89 133 134  1   
 90 133 135  1   
 91 136 137  1   
 92 136 138  1   
 93 139 140  1   
 94 139 141  1   
 95 142 143  1   
 96 142 144  1   
 97 145 146  1   
 98 145 147  1   
 99 148 149  1   
100 148 150  1   
101 151 152  1   
102 151 153  1   
103 154 155  1   
104 154 156  1   
105 157 158  1   
106 157 159  1   
107 160 161  1   
108 160 162  1   
109 163 164  1   
110 163 165  1   
111 166 167  1   
112 166 168  1   
113 169 170  1   
114 169 171  1   
115 172 173  1   
116 172 174  1   
117 175 176  1   
118 175 177  1   
119 178 179  1   
120 178 180  1   
121 181 182  1   
122 181 183  1   
123 184 185  1   
124 184 186  1   
125 187 188  1   
126 187 189  1   
127 190 191  1   
128 190 192  1   
129 193 194  1   
130 193 195  1   
131 196 197  1   
132 196 198  1   
133 199 200  1   
134 199 201  1   
135 202 203  1   
136 202 204  1   
137 205 206  1   
138 205 207  1   
139 208 209  1   
140 208 210  1   
141 211 212  1   
142 211 213  1   
143 214 215  1   
144 214 216  1   
145 217 218  1   
146 217 219  1   
147 220 221  1   
148 220 222  1   
149 223 224  1   
150 223 225  1   
151 226 227  1   
152 226 228  1   
153 229 230  1   
154 229 231  1   
155 232 233  1   
156 232 234  1   
157 235 236  1   
158 235 237  1   
159 238 239  1   
160 238 240  1   
161 241 242  1   
162 241 243  1   
163 244 245  1   
164 244 246  1   
165 247 248  1   
166 247 249  1   
167 250 251  1   
168 250 252  1   
169 253 254  1   
170 253 255  1   
171 256 257  1   
172 256 258  1   
173 259 260  1   
174 259 261  1   
175 262 263  1   
176 262 264  1   
177 265 266  1   
178 265 267  1   
179 268 269  1   
180 268 270  1   
181 271 272  1   
182 271 273  1   
183 274 275  1   
184 274 276  1   
185 277 278  1   
186 277 279  1   
187 280 281  1   
188 280 282  1   
189 283 284  1   
190 283 285  1   
191 286 287  1   
192 286 288  1   
193 289 290  1   
194 289 291  1   
195 292 293  1   
196 292 294  1   
197 295 296  1   
198 295 297  1   
199 298 299  1   
200 298 300  1   
201 301 302  1   
202 301 303  1   
203 304 305  1   
204 304 306  1   
205 307 308  1   
206 307 309  1   
207 310 311  1   
208 310 312  1   
209 313 314  1   
210 313 315  1   
211 316 317  1   
212 316 318  1   
213 319 320  1   
214 319 321  1   
215 322 323  1   
216 322 324  1   
217 325 326  1   
218 325 327  1   
219 328 329  1   
220 328 330  1   
221 331 332  1   
222 331 333  1   
223 334 335  1   
224 334 336  1   
225 337 338  1   
226 337 339  1   
227 340 341  1   
228 340 342  1   
229 343 344  1   
230 343 345  1   
231 346 347  1   
232 346 348  1   
233 349 350  1   
234 349 351  1   
235 352 353  1   
236 352 354  1   
237 355 356  1   
238 355 357  1   
239 358 359  1   
240 358 360  1   
241 361 362  1   
242 361 363  1   
243 364 365  1   
244 364 366  1   
245 367 368  1   
246 367 369  1   
247 370 371  1   
248 370 372  1   
249 373 374  1   
250 373 375  1   
251 376 377  1   
252 376 378  1   
253 379 380  1   
254 379 381  1   
255 382 383  1   
256 382 384  1   
257 385 386  1   
258 385 387  1   
259 388 389  1   
260 388 390  1   
261 391 392  1   
262 391 393  1   
263 394 395  1   
264 394 396  1   
265 397 398  1   
266 397 399  1   
267 400 401  1   
268 400 402  1   
269 403 404  1   
270 403 405  1   
271 406 407  1   
272 406 408  1   
273 409 410  1   
274 409 411  1   
275 412 413  1   
276 412 414  1   
277 415 416  1   
278 415 417  1   
279 418 419  1   
280 418 420  1   
281 421 422  1   
282 421 423  1   
283 424 425  1   
284 424 426  1   
285 427 428  1   
286 427 429  1   
287 430 431  1   
288 430 432  1   
289 433 434  1   
290 433 435  1   
291 436 437  1   
292 436 438  1   
293 439 440  1   
294 439 441  1   
295 442 443  1   
296 442 444  1   
297 445 446  1   
298 445 447  1   
299 448 449  1   
300 448 450  1   
301 451 452  1   
302 451 453  1   
303 454 455  1   
304 454 456  1   
305 457 458  1   
306 457 459  1   
307 460 461  1   
308 460 462  1   
309 463 464  1   
310 463 465  1   
311 466 467  1   
312 466 468  1   
313 469 470  1   
314 469 471  1   
315 472 473  1   
316 472 474  1   
317 475 476  1   
318 475 477  1   
319 478 479  1   
320 478 480  1   
321 481 482  1   
322 481 483  1   
323 484 485  1   
324 484 486  1   
325 487 488  1   
326 487 489  1   
327 490 491  1   
328 490 492  1   
329 493 494  1   
330 493 495  1   
331 496 497  1   
332 496 498  1   
333 499 500  1   
334 499 501  1   
335 502 503  1   
336 502 504  1   
337 505 506  1   
338 505 507  1   
339 508 509  1   
340 508 510  1   
341 511 512  1   
342 511 513  1   
343 514 515  1   
344 514 516  1   
345 517 518  1   
346 517 519  1   
347 520 521  1   
348 520 522  1   
349 523 524  1   
350 523 525  1   
351 526 527  1   
352 526 528  1   
353 529 530  1   
354 529 531  1   
355 532 533  1   
356 532 534  1   
357 535 536  1   
358 535 537  1   
359 538 539  1   
360 538 540  1   
361 541 542  1   
362 541 543  1   
363 544 545  1   
364 544 546  1   
365 547 548  1   
366 547 549  1   
367 550 551  1   
368 550 552  1   
369 553 554  1   
370 553 555  1   
371 556 557  1   
372 556 558  1   
373 559 560  1   
374 559 561  1   
375 562 563  1   
376 562 564  1   
377 565 566  1   
378 565 567  1   
379 568 569  1   
380 568 570  1   
381 571 572  1   
382 571 573  1   
383 574 575  1   
384 574 576  1   
385 577 578  1   
386 577 579  1   
387 580 581  1   
388 580 582  1   
389 583 584  1   
390 583 585  1   
391 586 587  1   
392 586 588  1   
393 589 590  1   
394 589 591  1   
395 592 593  1   
396 592 594  1   
397 595 596  1   
398 595 597  1   
399 598 599  1   
400 598 600  1   
401 601 602  1   
402 601 603  1   
403 604 605  1   
404 604 606  1   
405 607 608  1   
406 607 609  1   
407 610 611  1   
408 610 612  1   
409 613 614  1   
410 613 615  1   
411 616 617  1   
412 616 618  1   
413 619 620  1   
414 619 621  1   
415 622 623  1   
416 622 624  1   
417 625 626  1   
418 625 627  1   
419 628 629  1   
420 628 630  1   
421 631 632  1   
422 631 633  1   
423 634 635  1   
424 634 636  1   
425 637 638  1   
426 637 639  1   
427 640 641  1   
428 640 642  1   
429 643 644  1   
430 643 645  1   
431 646 647  1   
432 646 648  1   
433 649 650  1   
434 649 651  1   
435 652 653  1   
436 652 654  1   
437 655 656  1   
438 655 657  1   
439 658 659  1   
440 658 660  1   
441 661 662  1   
442 661 663  1   
443 664 665  1   
444 664 666  1   
445 667 668  1   
446 667 669  1   
447 670 671  1   
448 670 672  1   
449 673 674  1   
450 673 675  1   
451 676 677  1   
452 676 678  1   
453 679 680  1   
454 679 681  1   
455 682 683  1   
456 682 684  1   
457 685 686  1   
458 685 687  1   
459 688 689  1   
460 688 690  1   
461 691 692  1   
462 691 693  1   
463 694 695  1   
464 694 696  1   
465 697 698  1   
466 697 699  1   
467 700 701  1   
468 700 702  1   
469 703 704  1   
470 703 705  1   
471 706 707  1   
472 706 708  1   
473 709 710  1   
474 709 711  1   
475 712 713  1   
476 712 714  1   
477 715 716  1   
478 715 717  1   
479 718 719  1   
480 718 720  1   
481 721 722  1   
482 721 723  1   
483 724 725  1   
484 724 726  1   
485 727 728  1   
486 727 729  1   
487 730 731  1   
488 730 732  1   
489 733 734  1   
490 733 735  1   
491 736 737  1   
492 736 738  1   
493 739 740  1   
494 739 741  1   
495 742 743  1   
496 742 744  1   
497 745 746  1   
498 745 747  1   
499 748 749  1   
500 748 750  1   
501 751 752  1   
502 751 753  1   
503 754 755  1   
504 754 756  1   
505 757 758  1   
506 757 759  1   
507 760 761  1   
508 760 762  1   
509 763 764  1   
510 763 765  1   
511 766 767  1   
512 766 768  1   
513 769 770  1   
514 769 771  1   
515 772 773  1   
516 772 774  1   
517 775 776  1   
518 775 777  1   
519 778 779  1   
520 778 780  1   
521 781 782  1   
522 781 783  1   
523 784 785  1   
524 784 786  1   
525 787 788  1   
526 787 789  1   
527 790 791  1   
528 790 792  1   
529 793 794  1   
530 793 795  1   
531 796 797  1   
532 796 798  1   
533 799 800  1   
534 799 801  1   
535 802 803  1   
536 802 804  1   
537 805 806  1   
538 805 807  1   
539 808 809  1   
540 808 810  1   
541 811 812  1   
542 811 813  1   
543 814 815  1   
544 814 816  1   
545 817 818  1   
546 817 819  1   
547 820 821  1   
548 820 822  1   
549 823 824  1   
550 823 825  1   
551 826 827  1   
552 826 828  1   
553 829 830  1   
554 829 831  1   
555 832 833  1   
556 832 834  1   
557 835 836  1   
558 835 837  1   
559 838 839  1   
560 838 840  1   
561 841 842  1   
562 841 843  1   
563 844 845  1   
564 844 846  1   
565 847 848  1   
566 847 849  1   
567 850 851  1   
568 850 852  1   
569 853 854  1   
570 853 855  1   
571 856 857  1   
572 856 858  1   
573 859 860  1   
574 859 861  1   
575 862 863  1   
576 862 864  1   
577 865 866  1   
578 865 867  1   
579 868 869  1   
580 868 870  1   
581 871 872  1   
582 871 873  1   
583 874 875  1   
584 874 876  1   
585 877 878  1   
586 877 879  1   
587 880 881  1   
588 880 882  1   
589 883 884  1   
590 883 885  1   
591 886 887  1   
592 886 888  1   
593 889 890  1   
594 889 891  1   
595 892 893  1   
596 892 894  1   
597 895 896  1   
598 895 897  1   
599 898 899  1   
600 898 900  1   
601 901 902  1   
602 901 903  1   
603 904 905  1   
604 904 906  1   
605 907 908  1   
606 907 909  1   
607 910 911  1   
608 910 912  1   
609 913 914  1   
610 913 915  1   
611 916 917  1   
612 916 918  1   
613 919 920  1   
614 919 921  1   
615 922 923  1   
616 922 924  1   
617 925 926  1   
618 925 927  1   
619 928 929  1   
620 928 930  1   
621 931 932  1   
622 931 933  1   
623 934 935  1   
624 934 936  1   
625 937 938  1   
626 937 939  1   
627 940 941  1   
628 940 942  1   
629 943 944  1   
630 943 945  1   
@<TRIPOS>SUBSTRUCTURE
  1 HOH   1 GROUP 4 A **** 0
  2 HOH   4 GROUP 4 A **** 0
  3 HOH   7 GROUP 4 A **** 0
  4 HOH  10 GROUP 4 A **** 0
  5 HOH  13 GROUP 4 A **** 0
  6 HOH  16 GROUP 4 A **** 0
  7 HOH  19 GROUP 4 A **** 0
  8 HOH  22 GROUP 4 A **** 0
  9 HOH  25 GROUP 4 A **** 0
 10 HOH  28 GROUP 4 A **** 0
 11 HOH  31 GROUP 4 A **** 0
 12 HOH  34 GROUP 4 A **** 0
 13 HOH  37 GROUP 4 A **** 0
 14 HOH  40 GROUP 4 A **** 0
 15 HOH  43 GROUP 4 A **** 0
 16 HOH  46 GROUP 4 A **** 0
 17 HOH  49 GROUP 4 A **** 0
 18 HOH  52 GROUP 4 A **** 0
 19 HOH  55 GROUP 4 A **** 0
 20 HOH  58 GROUP 4 A **** 0
 21 HOH  61 GROUP 4 A **** 0
 22 HOH  64 GROUP 4 A **** 0
 23 HOH  67 GROUP 4 A **** 0
 24 HOH  70 GROUP 4 A **** 0
 25 HOH  73 GROUP 4 A **** 0
 26 HOH  76 GROUP 4 A **** 0
 27 HOH  79 GROUP 4 A **** 0
 28 HOH  82 GROUP 4 A **** 0
 29 HOH  85 GROUP 4 A **** 0
 30 HOH  88 GROUP 4 A **** 0
 31 HOH  91 GROUP 4 A **** 0
 32 HOH  94 GROUP 4 A **** 0
 33 HOH  97 GROUP 4 A **** 0
 34 HOH 100 GROUP 4 A **** 0
 35 HOH 103 GROUP 4 A **** 0
 36 HOH 106 GROUP 4 A **** 0
 37 HOH 109 GROUP 4 A **** 0
 38 HOH 112 GROUP 4 A **** 0
 39 HOH 115 GROUP 4 A **** 0
 40 HOH 118 GROUP 4 A **** 0
 41 HOH 121 GROUP 4 A **** 0
 42 HOH 124 GROUP 4 A **** 0
 43 HOH 127 GROUP 4 A **** 0
 44 HOH 130 GROUP 4 A **** 0
 45 HOH 133 GROUP 4 A **** 0
 46 HOH 136 GROUP 4 A **** 0
 47 HOH 139 GROUP 4 A **** 0
 48 HOH 142 GROUP 4 A **** 0
 49 HOH 145 GROUP 4 A **** 0
 50 HOH 148 GROUP 4 A **** 0
 51 HOH 151 GROUP 4 A **** 0
 52 HOH 154 GROUP 4 A **** 0
 53 HOH 157 GROUP 4 A **** 0
 54 HOH 160 GROUP 4 A **** 0
 55 HOH 163 GROUP 4 A **** 0
 56 HOH 166 GROUP 4 A **** 0
 57 HOH 169 GROUP 4 A **** 0
 58 HOH 172 GROUP 4 A **** 0
 59 HOH 175 GROUP 4 A **** 0
 60 HOH 178 GROUP 4 A **** 0
 61 HOH 181 GROUP 4 A **** 0
 62 HOH 184 GROUP 4 A **** 0
 63 HOH 187 GROUP 4 A **** 0
 64 HOH 190 GROUP 4 A **** 0
 65 HOH 193 GROUP 4 A **** 0
 66 HOH 196 GROUP 4 A **** 0
 67 HOH 199 GROUP 4 A **** 0
 68 HOH 202 GROUP 4 A **** 0
 69 HOH 205 GROUP 4 A **** 0
 70 HOH 208 GROUP 4 A **** 0
 71 HOH 211 GROUP 4 A **** 0
 72 HOH 214 GROUP 4 A **** 0
 73 HOH 217 GROUP 4 A **** 0
 74 HOH 220 GROUP 4 A **** 0
 75 HOH 223 GROUP 4 A **** 0
 76 HOH 226 GROUP 4 A **** 0
 77 HOH 229 GROUP 4 A **** 0
 78 HOH 232 GROUP 4 A **** 0
 79 HOH 235 GROUP 4 A **** 0
 80 HOH 238 GROUP 4 A **** 0
 81 HOH 241 GROUP 4 A **** 0
 82 HOH 244 GROUP 4 A **** 0
 83 HOH 247 GROUP 4 A **** 0
 84 HOH 250 GROUP 4 A **** 0
 85 HOH 253 GROUP 4 A **** 0
 86 HOH 256 GROUP 4 A **** 0
 87 HOH 259 GROUP 4 A **** 0
 88 HOH 262 GROUP 4 A **** 0
 89 HOH 265 GROUP 4 A **** 0
 90 HOH 268 GROUP 4 A **** 0
 91 HOH 271 GROUP 4 A **** 0
 92 HOH 274 GROUP 4 A **** 0
 93 HOH 277 GROUP 4 A **** 0
 94 HOH 280 GROUP 4 A **** 0
 95 HOH 283 GROUP 4 A **** 0
 96 HOH 286 GROUP 4 A **** 0
 97 HOH 289 GROUP 4 A **** 0
 98 HOH 292 GROUP 4 A **** 0
 99 HOH 295 GROUP 4 A **** 0
100 HOH 298 GROUP 4 A **** 0
101 HOH 301 GROUP 4 A **** 0
102 HOH 304 GROUP 4 A **** 0
103 HOH 307 GROUP 4 A **** 0
104 HOH 310 GROUP 4 A **** 0
105 HOH 313 GROUP 4 A **** 0
106 HOH 316 GROUP 4 A **** 0
107 HOH 319 GROUP 4 A **** 0
108 HOH 322 GROUP 4 A **** 0
109 HOH 325 GROUP 4 A **** 0
110 HOH 328 GROUP 4 A **** 0
111 HOH 331 GROUP 4 A **** 0
112 HOH 334 GROUP 4 A **** 0
113 HOH 337 GROUP 4 A **** 0
114 HOH 340 GROUP 4 A **** 0
115 HOH 343 GROUP 4 A **** 0
116 HOH 346 GROUP 4 A **** 0
117 HOH 349 GROUP 4 A **** 0
118 HOH 352 GROUP 4 A **** 0
119 HOH 355 GROUP 4 A **** 0
120 HOH 358 GROUP 4 A **** 0
121 HOH 361 GROUP 4 A **** 0
122 HOH 364 GROUP 4 A **** 0
123 HOH 367 GROUP 4 A **** 0
124 HOH 370 GROUP 4 A **** 0
125 HOH 373 GROUP 4 A **** 0
126 HOH 376 GROUP 4 A **** 0
127 HOH 379 GROUP 4 A **** 0
128 HOH 382 GROUP 4 A **** 0
129 HOH 385 GROUP 4 A **** 0
130 HOH 388 GROUP 4 A **** 0
131 HOH 391 GROUP 4 A **** 0
132 HOH 394 GROUP 4 A **** 0
133 HOH 397 GROUP 4 A **** 0
134 HOH 400 GROUP 4 A **** 0
135 HOH 403 GROUP 4 A **** 0
136 HOH 406 GROUP 4 A **** 0
137 HOH 409 GROUP 4 A **** 0
138 HOH 412 GROUP 4 A **** 0
139 HOH 415 GROUP 4 A **** 0
140 HOH 418 GROUP 4 A **** 0
141 HOH 421 GROUP 4 A **** 0
142 HOH 424 GROUP 4 A **** 0
143 HOH 427 GROUP 4 A **** 0
144 HOH 430 GROUP 4 A **** 0
145 HOH 433 GROUP 4 A **** 0
146 HOH 436 GROUP 4 A **** 0
147 HOH 439 GROUP 4 A **** 0
148 HOH 442 GROUP 4 A **** 0
149 HOH 445 GROUP 4 A **** 0
150 HOH 448 GROUP 4 A **** 0
151 HOH 451 GROUP 4 A **** 0
152 HOH 454 GROUP 4 A **** 0
153 HOH 457 GROUP 4 A **** 0
154 HOH 460 GROUP 4 A **** 0
155 HOH 463 GROUP 4 A **** 0
156 HOH 466 GROUP 4 A **** 0
157 HOH 469 GROUP 4 A **** 0
158 HOH 472 GROUP 4 A **** 0
159 HOH 475 GROUP 4 A **** 0
160 HOH 478 GROUP 4 A **** 0
161 HOH 481 GROUP 4 A **** 0
162 HOH 484 GROUP 4 A **** 0
163 HOH 487 GROUP 4 A **** 0
164 HOH 490 GROUP 4 A **** 0
165 HOH 493 GROUP 4 A **** 0
166 HOH 496 GROUP 4 A **** 0
167 HOH 499 GROUP 4 A **** 0
168 HOH 502 GROUP 4 A **** 0
169 HOH 505 GROUP 4 A **** 0
170 HOH 508 GROUP 4 A **** 0
171 HOH 511 GROUP 4 A **** 0
172 HOH 514 GROUP 4 A **** 0
173 HOH 517 GROUP 4 A **** 0
174 HOH 520 GROUP 4 A **** 0
175 HOH 523 GROUP 4 A **** 0
176 HOH 526 GROUP 4 A **** 0
177 HOH 529 GROUP 4 A **** 0
178 HOH 532 GROUP 4 A **** 0
179 HOH 535 GROUP 4 A **** 0
180 HOH 538 GROUP 4 A **** 0
181 HOH 541 GROUP 4 A **** 0
182 HOH 544 GROUP 4 A **** 0
183 HOH 547 GROUP 4 A **** 0
184 HOH 550 GROUP 4 A **** 0
185 HOH 553 GROUP 4 A **** 0
186 HOH 556 GROUP 4 A **** 0
187 HOH 559 GROUP 4 A **** 0
188 HOH 562 GROUP 4 A **** 0
189 HOH 565 GROUP 4 A **** 0
190 HOH 568 GROUP 4 A **** 0
191 HOH 571 GROUP 4 A **** 0
192 HOH 574 GROUP 4 A **** 0
193 HOH 577 GROUP 4 A **** 0
194 HOH 580 GROUP 4 A **** 0
195 HOH 583 GROUP 4 A **** 0
196 HOH 586 GROUP 4 A **** 0
197 HOH 589 GROUP 4 A **** 0
198 HOH 592 GROUP 4 A **** 0
199 HOH 595 GROUP 4 A **** 0
200 HOH 598 GROUP 4 A **** 0
201 HOH 601 GROUP 4 A **** 0
202 HOH 604 GROUP 4 A **** 0
203 HOH 607 GROUP 4 A **** 0
204 HOH 610 GROUP 4 A **** 0
205 HOH 613 GROUP 4 A **** 0
206 HOH 616 GROUP 4 A **** 0
207 HOH 619 GROUP 4 A **** 0
208 HOH 622 GROUP 4 A **** 0
209 HOH 625 GROUP 4 A **** 0
210 HOH 628 GROUP 4 A **** 0
211 HOH 631 GROUP 4 A **** 0
212 HOH 634 GROUP 4 A **** 0
213 HOH 637 GROUP 4 A **** 0
214 HOH 640 GROUP 4 A **** 0
215 HOH 643 GROUP 4 A **** 0
216 HOH 646 GROUP 4 A **** 0
217 HOH 649 GROUP 4 A **** 0
218 HOH 652 GROUP 4 A **** 0
219 HOH 655 GROUP 4 A **** 0
220 HOH 658 GROUP 4 A **** 0
221 HOH 661 GROUP 4 A **** 0
222 HOH 664 GROUP 4 A **** 0
223 HOH 667 GROUP 4 A **** 0
224 HOH 670 GROUP 4 A **** 0
225 HOH 673 GROUP 4 A **** 0
226 HOH 676 GROUP 4 A **** 0
227 HOH 679 GROUP 4 A **** 0
228 HOH 682 GROUP 4 A **** 0
229 HOH 685 GROUP 4 A **** 0
230 HOH 688 GROUP 4 A **** 0
231 HOH 691 GROUP 4 A **** 0
232 HOH 694 GROUP 4 A **** 0
233 HOH 697 GROUP 4 A **** 0
234 HOH 700 GROUP 4 A **** 0
235 HOH 703 GROUP 4 A **** 0
236 HOH 706 GROUP 4 A **** 0
237 HOH 709 GROUP 4 A **** 0
238 HOH 712 GROUP 4 A **** 0
239 HOH 715 GROUP 4 A **** 0
240 HOH 718 GROUP 4 A **** 0
241 HOH 721 GROUP 4 A **** 0
242 HOH 724 GROUP 4 A **** 0
243 HOH 727 GROUP 4 A **** 0
244 HOH 730 GROUP 4 A **** 0
245 HOH 733 GROUP 4 A **** 0
246 HOH 736 GROUP 4 A **** 0
247 HOH 739 GROUP 4 A **** 0
248 HOH 742 GROUP 4 A **** 0
249 HOH 745 GROUP 4 A **** 0
250 HOH 748 GROUP 4 A **** 0
251 HOH 751 GROUP 4 A **** 0
252 HOH 754 GROUP 4 A **** 0
253 HOH 757 GROUP 4 A **** 0
254 HOH 760 GROUP 4 A **** 0
255 HOH 763 GROUP 4 A **** 0
256 HOH 766 GROUP 4 A **** 0
257 HOH 769 GROUP 4 A **** 0
258 HOH 772 GROUP 4 A **** 0
259 HOH 775 GROUP 4 A **** 0
260 HOH 778 GROUP 4 A **** 0
261 HOH 781 GROUP 4 A **** 0
262 HOH 784 GROUP 4 A **** 0
263 HOH 787 GROUP 4 A **** 0
264 HOH 790 GROUP 4 A **** 0
265 HOH 793 GROUP 4 A **** 0
266 HOH 796 GROUP 4 A **** 0
267 HOH 799 GROUP 4 A **** 0
268 HOH 802 GROUP 4 A **** 0
269 HOH 805 GROUP 4 A **** 0
270 HOH 808 GROUP 4 A **** 0
271 HOH 811 GROUP 4 A **** 0
272 HOH 814 GROUP 4 A **** 0
273 HOH 817 GROUP 4 A **** 0
274 HOH 820 GROUP 4 A **** 0
275 HOH 823 GROUP 4 A **** 0
276 HOH 826 GROUP 4 A **** 0
277 HOH 829 GROUP 4 A **** 0
278 HOH 832 GROUP 4 A **** 0
279 HOH 835 GROUP 4 A **** 0
280 HOH 838 GROUP 4 A **** 0
281 HOH 841 GROUP 4 A **** 0
282 HOH 844 GROUP 4 A **** 0
283 HOH 847 GROUP 4 A **** 0
284 HOH 850 GROUP 4 A **** 0
285 HOH 853 GROUP 4 A **** 0
286 HOH 856 GROUP 4 A **** 0
287 HOH 859 GROUP 4 A **** 0
288 HOH 862 GROUP 4 A **** 0
289 HOH 865 GROUP 4 A **** 0
290 HOH 868 GROUP 4 A **** 0
291 HOH 871 GROUP 4 A **** 0
292 HOH 874 GROUP 4 A **** 0
293 HOH 877 GROUP 4 A **** 0
294 HOH 880 GROUP 4 A **** 0
295 HOH 883 GROUP 4 A **** 0
296 HOH 886 GROUP 4 A **** 0
297 HOH 889 GROUP 4 A **** 0
298 HOH 892 GROUP 4 A **** 0
299 HOH 895 GROUP 4 A **** 0
300 HOH 898 GROUP 4 A **** 0
301 HOH 901 GROUP 4 A **** 0
302 HOH 904 GROUP 4 A **** 0
303 HOH 907 GROUP 4 A **** 0
304 HOH 910 GROUP 4 A **** 0
305 HOH 913 GROUP 4 A **** 0
306 HOH 916 GROUP 4 A **** 0
307 HOH 919 GROUP 4 A **** 0
308 HOH 922 GROUP 4 A **** 0
309 HOH 925 GROUP 4 A **** 0
310 HOH 928 GROUP 4 A **** 0
311 HOH 931 GROUP 4 A **** 0
312 HOH 934 GROUP 4 A **** 0
313 HOH 937 GROUP 4 A **** 0
314 HOH 940 GROUP 4 A **** 0
315 HOH 943 GROUP 4 A **** 0

# MOE 2012.10 (io_trps.svl 2012.10)
