@<TRIPOS>MOLECULE
2gqg.B
14 13 1 0 0 
SMALL
USER_CHARGES


@<TRIPOS>ATOM
  1 C1     -16.5948     0.9854    25.7560 C.3   1 GOL   0.1200 
  2 H11    -16.8628     0.2145    25.0334 H     1 GOL   0.0800 
  3 H12    -16.4891     1.9420    25.2443 H     1 GOL   0.0800 
  4 O1     -15.3626     0.6436    26.3721 O.3   1 GOL  -0.6800 
  5 H1     -15.0720    -0.1908    25.9966 H     1 GOL   0.4000 
  6 C2     -17.6966     1.0949    26.8113 C.3   1 GOL   0.2000 
  7 H2     -17.3154     1.7683    27.5790 H     1 GOL   0.0800 
  8 O2     -18.8649     1.5714    26.1607 O.3   1 GOL  -0.6800 
  9 H2     -19.5626     0.9292    26.3099 H     1 GOL   0.4000 
 10 C3     -18.0419    -0.1984    27.5603 C.3   1 GOL   0.1200 
 11 H31    -18.7906     0.0173    28.3225 H     1 GOL   0.0800 
 12 H32    -17.1420    -0.5892    28.0353 H     1 GOL   0.0800 
 13 O3     -18.5623    -1.1825    26.6509 O.3   1 GOL  -0.6800 
 14 H3     -19.4504    -1.4042    26.9403 H     1 GOL   0.4000 
@<TRIPOS>BOND
  1   1   2  1   
  2   1   3  1   
  3   1   4  1   
  4   1   6  1   
  5   4   5  1   
  6   6   7  1   
  7   6   8  1   
  8   6  10  1   
  9   8   9  1   
 10  10  11  1   
 11  10  12  1   
 12  10  13  1   
 13  13  14  1   
@<TRIPOS>SUBSTRUCTURE
  1 GOL   6 GROUP 4 B **** 0

# MOE 2012.10 (io_trps.svl 2012.10)
