@<TRIPOS>MOLECULE
2gqg.B
60 63 1 0 0 
SMALL
USER_CHARGES


@<TRIPOS>ATOM
  1 C1       0.3551    21.2638    42.6457 C.2   1 Q1N1   0.0772 
  2 H1       0.2664    22.2748    42.2763 H     1 Q1N1   0.1500 
  3 C2       1.1082    20.3035    42.0792 C.2   1 Q1N1  -0.0450 
  4 C3       2.0752    20.4279    40.9417 C.2   1 Q1N1   0.7150 
  5 N6      -4.1229    13.3373    49.1885 N.4   1 Q1N1  -0.9590 
  6 H6      -4.1540    13.0175    50.1460 H     1 Q1N1   0.4500 
  7 C7       4.9459    22.0173    37.0993 C.ar  1 Q1N1  -0.1500 
  8 H7       5.5971    22.2120    36.2600 H     1 Q1N1   0.1500 
  9 C8       3.5819    21.8157    36.9018 C.ar  1 Q1N1  -0.1500 
 10 H8       3.1899    21.7957    35.8957 H     1 Q1N1   0.1500 
 11 C9       2.7084    21.6383    37.9826 C.ar  1 Q1N1  -0.1435 
 12 C10      1.2640    21.4111    37.6702 C.3   1 Q1N1  -0.0965 
 13 H101     1.1166    21.4420    36.5907 H     1 Q1N1   0.0800 
 14 H102     0.6636    22.1892    38.1415 H     1 Q1N1   0.0800 
 15 H103     0.9590    20.4362    38.0508 H     1 Q1N1   0.0800 
 16 C11     -0.9065    17.3823    45.2450 C.ar  1 Q1N1   0.4100 
 17 C12     -1.6575    16.8898    46.3374 C.ar  1 Q1N1  -0.1500 
 18 H12     -2.2543    17.5418    46.9580 H     1 Q1N1   0.1500 
 19 C13     -1.5848    15.4955    46.5735 C.ar  1 Q1N1   0.4100 
 20 C14     -0.1361    15.2583    44.7496 C.ar  1 Q1N1   0.4765 
 21 C15      0.6766    14.4112    43.8087 C.3   1 Q1N1  -0.0965 
 22 H151     0.6289    13.3691    44.1247 H     1 Q1N1   0.0800 
 23 H152     1.7134    14.7474    43.8206 H     1 Q1N1   0.0800 
 24 H153     0.2764    14.5034    42.7990 H     1 Q1N1   0.0800 
 25 C16     -1.8112    13.5795    48.1366 C.3   1 Q1N1   0.2091 
 26 H161    -1.1603    13.7861    48.9861 H     1 Q1N1   0.0800 
 27 H162    -1.2387    13.0846    47.3521 H     1 Q1N1   0.0800 
 28 C19     -3.0780    15.6340    48.6349 C.3   1 Q1N1   0.2091 
 29 H191    -3.6559    16.4087    48.1309 H     1 Q1N1   0.0800 
 30 H192    -2.3480    16.0986    49.2977 H     1 Q1N1   0.0800 
 31 C20     -5.3537    12.8910    48.4997 C.3   1 Q1N1   0.3430 
 32 H201    -5.3259    11.8016    48.4768 H     1 Q1N1   0.0800 
 33 H202    -5.3041    13.2772    47.4817 H     1 Q1N1   0.0800 
 34 C21     -6.7318    13.2914    49.0635 C.3   1 Q1N1   0.1200 
 35 H211    -6.6278    14.2274    49.6122 H     1 Q1N1   0.0800 
 36 H212    -7.0745    12.5092    49.7409 H     1 Q1N1   0.0800 
 37 N       -0.9394    18.7100    44.9371 N.pl3 1 Q1N1  -0.5840 
 38 H       -1.5922    19.2604    45.4766 H     1 Q1N1   0.4000 
 39 C       -0.2228    19.4046    44.0102 C.2   1 Q1N1   0.4621 
 40 N1      -0.3398    20.7364    43.8551 N.2   1 Q1N1  -0.5653 
 41 S        0.8964    18.7599    42.7930 S.3   1 Q1N1  -0.0800 
 42 N2       2.4231    21.5936    40.3975 N.am  1 Q1N1  -0.5470 
 43 H2       2.0791    22.4506    40.8066 H     1 Q1N1   0.3700 
 44 C4       3.2267    21.6570    39.3094 C.ar  1 Q1N1   0.1170 
 45 C5       4.6050    21.7898    39.4676 C.ar  1 Q1N1   0.1770 
 46 C6       5.4562    21.9651    38.3849 C.ar  1 Q1N1  -0.1500 
 47 H6       6.5197    22.0610    38.5462 H     1 Q1N1   0.1500 
 48 CL       5.3348    21.7658    41.0285 Cl    1 Q1N1  -0.1770 
 49 O        2.5278    19.3503    40.5561 O.2   1 Q1N1  -0.5700 
 50 N3      -0.8106    14.6985    45.7642 N.ar  1 Q1N1  -0.6200 
 51 N4      -0.1708    16.5606    44.4873 N.ar  1 Q1N1  -0.6200 
 52 N5      -2.3514    14.8572    47.6140 N.pl3 1 Q1N1  -0.8382 
 53 C17     -2.9418    12.6661    48.5830 C.3   1 Q1N1   0.3430 
 54 H171    -3.2852    12.1100    47.7107 H     1 Q1N1   0.0800 
 55 H172    -2.5383    11.9722    49.3204 H     1 Q1N1   0.0800 
 56 C18     -4.0339    14.7938    49.4830 C.3   1 Q1N1   0.3430 
 57 H181    -3.7230    14.8972    50.5226 H     1 Q1N1   0.0800 
 58 H182    -5.0326    15.2125    49.3591 H     1 Q1N1   0.0800 
 59 O1      -7.7019    13.4668    48.0393 O.3   1 Q1N1  -0.6800 
 60 H1      -7.3839    14.1578    47.4536 H     1 Q1N1   0.4000 
@<TRIPOS>BOND
  1   1   2  1   
  2   1   3  2   
  3   1  40  1   
  4   3   4  1   
  5   3  41  1   
  6   4  42  am  
  7   4  49  2   
  8   5   6  1   
  9   5  31  1   
 10   5  53  1   
 11   5  56  1   
 12   7   8  1   
 13   7   9  ar  
 14   7  46  ar  
 15   9  10  1   
 16   9  11  ar  
 17  11  12  1   
 18  11  44  ar  
 19  12  13  1   
 20  12  14  1   
 21  12  15  1   
 22  16  17  ar  
 23  16  37  1   
 24  16  51  ar  
 25  17  18  1   
 26  17  19  ar  
 27  19  50  ar  
 28  19  52  1   
 29  20  21  1   
 30  20  50  ar  
 31  20  51  ar  
 32  21  22  1   
 33  21  23  1   
 34  21  24  1   
 35  25  26  1   
 36  25  27  1   
 37  25  52  1   
 38  25  53  1   
 39  28  29  1   
 40  28  30  1   
 41  28  52  1   
 42  28  56  1   
 43  31  32  1   
 44  31  33  1   
 45  31  34  1   
 46  34  35  1   
 47  34  36  1   
 48  34  59  1   
 49  37  38  1   
 50  37  39  1   
 51  39  40  2   
 52  39  41  1   
 53  42  43  1   
 54  42  44  1   
 55  44  45  ar  
 56  45  46  ar  
 57  45  48  1   
 58  46  47  1   
 59  53  54  1   
 60  53  55  1   
 61  56  57  1   
 62  56  58  1   
 63  59  60  1   
@<TRIPOS>SUBSTRUCTURE
  1 Q1N1  51 GROUP 4 B **** 0

# MOE 2012.10 (io_trps.svl 2012.10)
