@<TRIPOS>MOLECULE
2gqg.B
495 330 165 0 0 
SMALL
USER_CHARGES


@<TRIPOS>ATOM
  1 O       -4.5191    29.4488    38.5576 O.3     1 HOH   0.0000 
  2 H1      -3.5591    29.4488    38.5576 H       1 HOH   0.0000 
  3 H2      -4.8094    30.0958    39.2047 H       1 HOH   0.0000 
  4 O      -16.4567     7.0212    43.3078 O.3     2 HOH   0.0000 
  5 H1     -15.4967     7.0212    43.3078 H       2 HOH   0.0000 
  6 H2     -16.7470     7.6682    43.9549 H       2 HOH   0.0000 
  7 O      -13.2072    20.2942    46.5295 O.3     3 HOH   0.0000 
  8 H1     -12.2472    20.2942    46.5295 H       3 HOH   0.0000 
  9 H2     -13.4974    20.9413    47.1766 H       3 HOH   0.0000 
 10 O       -3.7232     4.0548    27.2343 O.3     4 HOH   0.0000 
 11 H1      -2.7632     4.0548    27.2343 H       4 HOH   0.0000 
 12 H2      -4.0135     4.7019    27.8814 H       4 HOH   0.0000 
 13 O       -4.1592     0.1628    18.6396 O.3     5 HOH   0.0000 
 14 H1      -3.1992     0.1628    18.6396 H       5 HOH   0.0000 
 15 H2      -4.4495     0.8099    19.2866 H       5 HOH   0.0000 
 16 O       -5.3833    -1.2423    16.4523 O.3     6 HOH   0.0000 
 17 H1      -4.4233    -1.2423    16.4523 H       6 HOH   0.0000 
 18 H2      -5.6736    -0.5952    17.0994 H       6 HOH   0.0000 
 19 O      -14.5970     6.3033    22.4325 O.3     7 HOH   0.0000 
 20 H1     -13.6370     6.3033    22.4325 H       7 HOH   0.0000 
 21 H2     -14.8872     6.9503    23.0796 H       7 HOH   0.0000 
 22 O       -9.4745     7.1149    22.7210 O.3     8 HOH   0.0000 
 23 H1      -8.5145     7.1149    22.7210 H       8 HOH   0.0000 
 24 H2      -9.7648     7.7619    23.3680 H       8 HOH   0.0000 
 25 O       -7.1719     6.4315    21.2738 O.3     9 HOH   0.0000 
 26 H1      -6.2119     6.4315    21.2738 H       9 HOH   0.0000 
 27 H2      -7.4621     7.0786    21.9209 H       9 HOH   0.0000 
 28 O       -4.2074    15.9236    25.4478 O.3    10 HOH   0.0000 
 29 H1      -3.2474    15.9236    25.4478 H      10 HOH   0.0000 
 30 H2      -4.4977    16.5707    26.0949 H      10 HOH   0.0000 
 31 O       -8.5016     4.1966    49.3285 O.3    11 HOH   0.0000 
 32 H1      -7.5416     4.1966    49.3285 H      11 HOH   0.0000 
 33 H2      -8.7919     4.8437    49.9755 H      11 HOH   0.0000 
 34 O      -10.5420    29.2585    22.1137 O.3    12 HOH   0.0000 
 35 H1      -9.5820    29.2585    22.1137 H      12 HOH   0.0000 
 36 H2     -10.8322    29.9056    22.7608 H      12 HOH   0.0000 
 37 O        1.8773    18.7926    28.7640 O.3    13 HOH   0.0000 
 38 H1       2.8373    18.7926    28.7640 H      13 HOH   0.0000 
 39 H2       1.5870    19.4397    29.4111 H      13 HOH   0.0000 
 40 O      -15.1893    -1.6252    27.4594 O.3    14 HOH  -0.8340 
 41 H1     -14.4638    -2.1011    27.8636 H      14 HOH   0.4170 
 42 H2     -15.9755    -2.0526    27.7989 H      14 HOH   0.4170 
 43 O      -18.8883     0.1718    14.0322 O.3    15 HOH   0.0000 
 44 H1     -17.9283     0.1718    14.0322 H      15 HOH   0.0000 
 45 H2     -19.1785     0.8189    14.6793 H      15 HOH   0.0000 
 46 O        6.7126    25.8171    22.9041 O.3    16 HOH   0.0000 
 47 H1       7.6726    25.8171    22.9041 H      16 HOH   0.0000 
 48 H2       6.4224    26.4642    23.5511 H      16 HOH   0.0000 
 49 O       -6.4058     9.7936    33.5808 O.3    17 HOH   0.0000 
 50 H1      -5.4458     9.7936    33.5808 H      17 HOH   0.0000 
 51 H2      -6.6961    10.4407    34.2279 H      17 HOH   0.0000 
 52 O       -2.9098    16.6708    21.5346 O.3    18 HOH   0.0000 
 53 H1      -1.9498    16.6708    21.5346 H      18 HOH   0.0000 
 54 H2      -3.2001    17.3178    22.1817 H      18 HOH   0.0000 
 55 O       18.3733    29.3420    41.3108 O.3    19 HOH   0.0000 
 56 H1      19.3333    29.3420    41.3108 H      19 HOH   0.0000 
 57 H2      18.0831    29.9891    41.9579 H      19 HOH   0.0000 
 58 O      -17.9209     9.6078    17.8743 O.3    20 HOH   0.0000 
 59 H1     -16.9609     9.6078    17.8743 H      20 HOH   0.0000 
 60 H2     -18.2112    10.2548    18.5213 H      20 HOH   0.0000 
 61 O      -23.8339     8.0774    46.7314 O.3    21 HOH   0.0000 
 62 H1     -22.8739     8.0774    46.7314 H      21 HOH   0.0000 
 63 H2     -24.1242     8.7244    47.3785 H      21 HOH   0.0000 
 64 O       11.0431    38.9006    34.1132 O.3    22 HOH   0.0000 
 65 H1      12.0031    38.9006    34.1132 H      22 HOH   0.0000 
 66 H2      10.7528    39.5477    34.7603 H      22 HOH   0.0000 
 67 O       -9.9265    -6.8306    12.3165 O.3    23 HOH   0.0000 
 68 H1      -8.9665    -6.8306    12.3165 H      23 HOH   0.0000 
 69 H2     -10.2168    -6.1836    12.9636 H      23 HOH   0.0000 
 70 O      -14.2504     6.2933    12.8948 O.3    24 HOH   0.0000 
 71 H1     -13.2904     6.2933    12.8948 H      24 HOH   0.0000 
 72 H2     -14.5407     6.9403    13.5418 H      24 HOH   0.0000 
 73 O        9.0525    31.6441    28.8671 O.3    25 HOH   0.0000 
 74 H1      10.0125    31.6441    28.8671 H      25 HOH   0.0000 
 75 H2       8.7622    32.2912    29.5142 H      25 HOH   0.0000 
 76 O       -0.4894    27.6679    34.5039 O.3    26 HOH   0.0000 
 77 H1       0.4706    27.6679    34.5039 H      26 HOH   0.0000 
 78 H2      -0.7797    28.3149    35.1509 H      26 HOH   0.0000 
 79 O       -2.7483    35.6778    29.3077 O.3    27 HOH   0.0000 
 80 H1      -1.7883    35.6778    29.3077 H      27 HOH   0.0000 
 81 H2      -3.0385    36.3248    29.9547 H      27 HOH   0.0000 
 82 O       -0.2829    27.3444    47.3475 O.3    28 HOH   0.0000 
 83 H1       0.6771    27.3444    47.3475 H      28 HOH   0.0000 
 84 H2      -0.5732    27.9914    47.9945 H      28 HOH   0.0000 
 85 O        1.7519     9.3214    18.8284 O.3    29 HOH   0.0000 
 86 H1       2.7119     9.3214    18.8284 H      29 HOH   0.0000 
 87 H2       1.4616     9.9685    19.4755 H      29 HOH   0.0000 
 88 O        1.9186    32.7435    34.4920 O.3    30 HOH   0.0000 
 89 H1       2.8786    32.7435    34.4920 H      30 HOH   0.0000 
 90 H2       1.6284    33.3906    35.1391 H      30 HOH   0.0000 
 91 O      -16.4227    10.2174    13.1904 O.3    31 HOH   0.0000 
 92 H1     -15.4627    10.2174    13.1904 H      31 HOH   0.0000 
 93 H2     -16.7130    10.8645    13.8374 H      31 HOH   0.0000 
 94 O      -13.4672    27.8208    38.5593 O.3    32 HOH   0.0000 
 95 H1     -12.5072    27.8208    38.5593 H      32 HOH   0.0000 
 96 H2     -13.7575    28.4678    39.2064 H      32 HOH   0.0000 
 97 O       -3.2822    32.1745    38.4005 O.3    33 HOH   0.0000 
 98 H1      -2.3222    32.1745    38.4005 H      33 HOH   0.0000 
 99 H2      -3.5725    32.8216    39.0476 H      33 HOH   0.0000 
100 O        0.4581    11.5199    34.6634 O.3    34 HOH   0.0000 
101 H1       1.4181    11.5199    34.6634 H      34 HOH   0.0000 
102 H2       0.1678    12.1669    35.3104 H      34 HOH   0.0000 
103 O      -15.1861    12.6429    11.0713 O.3    35 HOH   0.0000 
104 H1     -14.2261    12.6429    11.0713 H      35 HOH   0.0000 
105 H2     -15.4764    13.2900    11.7184 H      35 HOH   0.0000 
106 O      -13.4803    29.3078    35.2285 O.3    36 HOH   0.0000 
107 H1     -12.5203    29.3078    35.2285 H      36 HOH   0.0000 
108 H2     -13.7706    29.9549    35.8755 H      36 HOH   0.0000 
109 O      -15.3593     4.1141    39.7506 O.3    37 HOH   0.0000 
110 H1     -14.3993     4.1141    39.7506 H      37 HOH   0.0000 
111 H2     -15.6496     4.7611    40.3976 H      37 HOH   0.0000 
112 O        1.4829    28.9444    35.5118 O.3    38 HOH   0.0000 
113 H1       2.4429    28.9444    35.5118 H      38 HOH   0.0000 
114 H2       1.1926    29.5914    36.1588 H      38 HOH   0.0000 
115 O        1.5792    34.9317    27.0418 O.3    39 HOH   0.0000 
116 H1       2.5392    34.9317    27.0418 H      39 HOH   0.0000 
117 H2       1.2889    35.5787    27.6888 H      39 HOH   0.0000 
118 O      -11.8946    11.7637    46.9163 O.3    40 HOH  -0.8340 
119 H1     -12.1976    11.5483    46.0342 H      40 HOH   0.4170 
120 H2     -12.1908    11.0316    47.4572 H      40 HOH   0.4170 
121 O       -3.9910     6.9777    39.6421 O.3    41 HOH   0.0000 
122 H1      -3.0310     6.9777    39.6421 H      41 HOH   0.0000 
123 H2      -4.2812     7.6248    40.2892 H      41 HOH   0.0000 
124 O      -11.5406    30.1214    28.5317 O.3    42 HOH   0.0000 
125 H1     -10.5806    30.1214    28.5317 H      42 HOH   0.0000 
126 H2     -11.8308    30.7685    29.1788 H      42 HOH   0.0000 
127 O        5.9787    35.6515    32.4761 O.3    43 HOH   0.0000 
128 H1       6.9387    35.6515    32.4761 H      43 HOH   0.0000 
129 H2       5.6884    36.2986    33.1232 H      43 HOH   0.0000 
130 O      -18.8743     6.1306    15.1047 O.3    44 HOH   0.0000 
131 H1     -17.9143     6.1306    15.1047 H      44 HOH   0.0000 
132 H2     -19.1645     6.7776    15.7518 H      44 HOH   0.0000 
133 O      -25.7327    12.5045    41.3048 O.3    45 HOH   0.0000 
134 H1     -24.7727    12.5045    41.3048 H      45 HOH   0.0000 
135 H2     -26.0230    13.1515    41.9519 H      45 HOH   0.0000 
136 O       -7.8969    17.2566     9.1560 O.3    46 HOH   0.0000 
137 H1      -6.9369    17.2566     9.1560 H      46 HOH   0.0000 
138 H2      -8.1872    17.9037     9.8031 H      46 HOH   0.0000 
139 O        0.3232    32.6454    22.7252 O.3    47 HOH   0.0000 
140 H1       1.2832    32.6454    22.7252 H      47 HOH   0.0000 
141 H2       0.0330    33.2924    23.3723 H      47 HOH   0.0000 
142 O       14.6638    24.8667    49.8440 O.3    48 HOH   0.0000 
143 H1      15.6238    24.8667    49.8440 H      48 HOH   0.0000 
144 H2      14.3735    25.5137    50.4910 H      48 HOH   0.0000 
145 O       -1.8212    11.6400    38.7745 O.3    49 HOH  -0.8340 
146 H1      -1.3384    12.1820    38.1506 H      49 HOH   0.4170 
147 H2      -2.2417    10.9702    38.2353 H      49 HOH   0.4170 
148 O       -2.4890    11.8073    28.7440 O.3    50 HOH   0.0000 
149 H1      -1.5290    11.8073    28.7440 H      50 HOH   0.0000 
150 H2      -2.7793    12.4543    29.3911 H      50 HOH   0.0000 
151 O      -12.4901     5.6231     9.8512 O.3    51 HOH   0.0000 
152 H1     -11.5301     5.6231     9.8512 H      51 HOH   0.0000 
153 H2     -12.7804     6.2702    10.4983 H      51 HOH   0.0000 
154 O      -19.3287    12.6872    10.3069 O.3    52 HOH   0.0000 
155 H1     -18.3687    12.6872    10.3069 H      52 HOH   0.0000 
156 H2     -19.6190    13.3343    10.9539 H      52 HOH   0.0000 
157 O      -28.8341     6.2383    32.5875 O.3    53 HOH   0.0000 
158 H1     -27.8741     6.2383    32.5875 H      53 HOH   0.0000 
159 H2     -29.1244     6.8853    33.2346 H      53 HOH   0.0000 
160 O        4.7762    34.4105    42.5171 O.3    54 HOH   0.0000 
161 H1       5.7362    34.4105    42.5171 H      54 HOH   0.0000 
162 H2       4.4859    35.0576    43.1642 H      54 HOH   0.0000 
163 O        6.2213    20.5006    14.5434 O.3    55 HOH  -0.8340 
164 H1       7.0854    20.5032    14.9552 H      55 HOH   0.4170 
165 H2       6.3935    20.2900    13.6257 H      55 HOH   0.4170 
166 O       -8.2065    10.6006    12.2560 O.3    56 HOH   0.0000 
167 H1      -7.2465    10.6006    12.2560 H      56 HOH   0.0000 
168 H2      -8.4968    11.2477    12.9030 H      56 HOH   0.0000 
169 O      -22.2676    10.0410    34.9381 O.3    57 HOH   0.0000 
170 H1     -21.3076    10.0410    34.9381 H      57 HOH   0.0000 
171 H2     -22.5578    10.6880    35.5851 H      57 HOH   0.0000 
172 O       -2.5750    12.2847    24.1609 O.3    58 HOH   0.0000 
173 H1      -1.6150    12.2847    24.1609 H      58 HOH   0.0000 
174 H2      -2.8653    12.9318    24.8079 H      58 HOH   0.0000 
175 O       -6.8070    22.2314    14.8498 O.3    59 HOH   0.0000 
176 H1      -5.8470    22.2314    14.8498 H      59 HOH   0.0000 
177 H2      -7.0973    22.8784    15.4968 H      59 HOH   0.0000 
178 O       13.6894    34.9719    46.3049 O.3    60 HOH   0.0000 
179 H1      14.6494    34.9719    46.3049 H      60 HOH   0.0000 
180 H2      13.3991    35.6189    46.9519 H      60 HOH   0.0000 
181 O       -5.9167    23.4277    22.8066 O.3    61 HOH   0.0000 
182 H1      -4.9567    23.4277    22.8066 H      61 HOH   0.0000 
183 H2      -6.2070    24.0747    23.4537 H      61 HOH   0.0000 
184 O       -6.7237     5.4079    33.8915 O.3    62 HOH   0.0000 
185 H1      -5.7637     5.4079    33.8915 H      62 HOH   0.0000 
186 H2      -7.0140     6.0550    34.5385 H      62 HOH   0.0000 
187 O       -5.5259     9.0831    11.3063 O.3    63 HOH   0.0000 
188 H1      -4.5659     9.0831    11.3063 H      63 HOH   0.0000 
189 H2      -5.8162     9.7302    11.9533 H      63 HOH   0.0000 
190 O      -30.5259    13.4318    30.4929 O.3    64 HOH   0.0000 
191 H1     -29.5659    13.4318    30.4929 H      64 HOH   0.0000 
192 H2     -30.8162    14.0789    31.1399 H      64 HOH   0.0000 
193 O       24.5246    40.5631    35.2105 O.3    65 HOH   0.0000 
194 H1      25.4846    40.5631    35.2105 H      65 HOH   0.0000 
195 H2      24.2344    41.2102    35.8575 H      65 HOH   0.0000 
196 O        3.8232    12.1232     9.9583 O.3    66 HOH   0.0000 
197 H1       4.7832    12.1232     9.9583 H      66 HOH   0.0000 
198 H2       3.5329    12.7703    10.6054 H      66 HOH   0.0000 
199 O      -15.8740     6.8693    46.1645 O.3    67 HOH   0.0000 
200 H1     -14.9140     6.8693    46.1645 H      67 HOH   0.0000 
201 H2     -16.1643     7.5163    46.8115 H      67 HOH   0.0000 
202 O       -4.4488    23.1368    16.2100 O.3    68 HOH   0.0000 
203 H1      -3.4888    23.1368    16.2100 H      68 HOH   0.0000 
204 H2      -4.7391    23.7839    16.8571 H      68 HOH   0.0000 
205 O       25.0684    38.0565    30.3527 O.3    69 HOH   0.0000 
206 H1      26.0284    38.0565    30.3527 H      69 HOH   0.0000 
207 H2      24.7782    38.7035    30.9998 H      69 HOH   0.0000 
208 O       -5.4975    12.8498    21.7464 O.3    70 HOH   0.0000 
209 H1      -4.5375    12.8498    21.7464 H      70 HOH   0.0000 
210 H2      -5.7878    13.4969    22.3934 H      70 HOH   0.0000 
211 O       -9.0766     6.3738    34.0645 O.3    71 HOH   0.0000 
212 H1      -8.1166     6.3738    34.0645 H      71 HOH   0.0000 
213 H2      -9.3669     7.0208    34.7116 H      71 HOH   0.0000 
214 O       -5.8607    23.5983    46.8118 O.3    72 HOH   0.0000 
215 H1      -4.9007    23.5983    46.8118 H      72 HOH   0.0000 
216 H2      -6.1510    24.2454    47.4588 H      72 HOH   0.0000 
217 O       -3.7441    -4.3713    26.4826 O.3    73 HOH   0.0000 
218 H1      -2.7841    -4.3713    26.4826 H      73 HOH   0.0000 
219 H2      -4.0343    -3.7243    27.1296 H      73 HOH   0.0000 
220 O       13.9914    37.3216    40.0397 O.3    74 HOH   0.0000 
221 H1      14.9514    37.3216    40.0397 H      74 HOH   0.0000 
222 H2      13.7011    37.9686    40.6868 H      74 HOH   0.0000 
223 O        0.1693    10.3510    37.0248 O.3    75 HOH   0.0000 
224 H1       1.1293    10.3510    37.0248 H      75 HOH   0.0000 
225 H2      -0.1209    10.9981    37.6719 H      75 HOH   0.0000 
226 O      -22.4138    14.3123    18.8653 O.3    76 HOH   0.0000 
227 H1     -21.4538    14.3123    18.8653 H      76 HOH   0.0000 
228 H2     -22.7041    14.9593    19.5123 H      76 HOH   0.0000 
229 O       -2.6959    16.5252    13.8848 O.3    77 HOH  -0.8340 
230 H1      -2.2699    17.2912    13.5000 H      77 HOH   0.4170 
231 H2      -3.2305    16.8796    14.5954 H      77 HOH   0.4170 
232 O      -21.9651    28.0672    20.8787 O.3    78 HOH   0.0000 
233 H1     -21.0051    28.0672    20.8787 H      78 HOH   0.0000 
234 H2     -22.2554    28.7142    21.5258 H      78 HOH   0.0000 
235 O       -7.0824    34.1598    31.5324 O.3    79 HOH   0.0000 
236 H1      -6.1224    34.1598    31.5324 H      79 HOH   0.0000 
237 H2      -7.3727    34.8068    32.1794 H      79 HOH   0.0000 
238 O       -4.6743     7.2483    33.6270 O.3    80 HOH   0.0000 
239 H1      -3.7143     7.2483    33.6270 H      80 HOH   0.0000 
240 H2      -4.9646     7.8953    34.2741 H      80 HOH   0.0000 
241 O      -18.4635    19.8570    15.7245 O.3    81 HOH   0.0000 
242 H1     -17.5035    19.8570    15.7245 H      81 HOH   0.0000 
243 H2     -18.7538    20.5041    16.3716 H      81 HOH   0.0000 
244 O      -11.4219    27.1267    45.7336 O.3    82 HOH   0.0000 
245 H1     -10.4619    27.1267    45.7336 H      82 HOH   0.0000 
246 H2     -11.7122    27.7737    46.3807 H      82 HOH   0.0000 
247 O        3.5757    23.9591    15.1321 O.3    83 HOH  -0.8340 
248 H1       3.0783    23.2087    14.8070 H      83 HOH   0.4170 
249 H2       4.2609    24.0947    14.4776 H      83 HOH   0.4170 
250 O       10.5618    38.0103    41.6228 O.3    84 HOH   0.0000 
251 H1      11.5218    38.0103    41.6228 H      84 HOH   0.0000 
252 H2      10.2715    38.6574    42.2698 H      84 HOH   0.0000 
253 O       -3.6613    18.1965    51.6501 O.3    85 HOH  -0.8340 
254 H1      -3.0236    17.6051    51.2504 H      85 HOH   0.4170 
255 H2      -4.3115    18.3474    50.9640 H      85 HOH   0.4170 
256 O       -9.1134    -2.2917    30.8269 O.3    86 HOH   0.0000 
257 H1      -8.1534    -2.2917    30.8269 H      86 HOH   0.0000 
258 H2      -9.4037    -1.6446    31.4739 H      86 HOH   0.0000 
259 O       -9.4845    29.7639    40.2654 O.3    87 HOH   0.0000 
260 H1      -8.5245    29.7639    40.2654 H      87 HOH   0.0000 
261 H2      -9.7747    30.4109    40.9125 H      87 HOH   0.0000 
262 O      -20.8780    14.3249    16.5182 O.3    88 HOH   0.0000 
263 H1     -19.9180    14.3249    16.5182 H      88 HOH   0.0000 
264 H2     -21.1683    14.9720    17.1653 H      88 HOH   0.0000 
265 O        8.4145    24.2351    24.5681 O.3    89 HOH   0.0000 
266 H1       9.3745    24.2351    24.5681 H      89 HOH   0.0000 
267 H2       8.1242    24.8822    25.2152 H      89 HOH   0.0000 
268 O      -13.4349    31.6010    36.7595 O.3    90 HOH   0.0000 
269 H1     -12.4749    31.6010    36.7595 H      90 HOH   0.0000 
270 H2     -13.7251    32.2480    37.4066 H      90 HOH   0.0000 
271 O       -8.1413    25.3217    47.1263 O.3    91 HOH   0.0000 
272 H1      -7.1813    25.3217    47.1263 H      91 HOH   0.0000 
273 H2      -8.4315    25.9687    47.7734 H      91 HOH   0.0000 
274 O      -15.3521    13.7980    48.6402 O.3    92 HOH   0.0000 
275 H1     -14.3921    13.7980    48.6402 H      92 HOH   0.0000 
276 H2     -15.6423    14.4451    49.2872 H      92 HOH   0.0000 
277 O        3.1267    16.2072    30.1594 O.3    93 HOH   0.0000 
278 H1       4.0867    16.2072    30.1594 H      93 HOH   0.0000 
279 H2       2.8365    16.8542    30.8065 H      93 HOH   0.0000 
280 O      -21.4500     6.9371    37.0498 O.3    94 HOH   0.0000 
281 H1     -20.4900     6.9371    37.0498 H      94 HOH   0.0000 
282 H2     -21.7403     7.5841    37.6968 H      94 HOH   0.0000 
283 O      -29.5678    15.2504    28.3015 O.3    95 HOH   0.0000 
284 H1     -28.6078    15.2504    28.3015 H      95 HOH   0.0000 
285 H2     -29.8581    15.8974    28.9485 H      95 HOH   0.0000 
286 O       14.9050    27.3864    28.8401 O.3    96 HOH   0.0000 
287 H1      15.8650    27.3864    28.8401 H      96 HOH   0.0000 
288 H2      14.6147    28.0334    29.4872 H      96 HOH   0.0000 
289 O      -27.7352    29.3701    31.2626 O.3    97 HOH   0.0000 
290 H1     -26.7752    29.3701    31.2626 H      97 HOH   0.0000 
291 H2     -28.0255    30.0171    31.9096 H      97 HOH   0.0000 
292 O      -23.9113     4.3356    23.6188 O.3    98 HOH   0.0000 
293 H1     -22.9513     4.3356    23.6188 H      98 HOH   0.0000 
294 H2     -24.2015     4.9827    24.2659 H      98 HOH   0.0000 
295 O        8.2898    15.7441    21.6527 O.3    99 HOH  -0.8340 
296 H1       8.1129    16.4678    21.0517 H      99 HOH   0.4170 
297 H2       9.2411    15.6403    21.6299 H      99 HOH   0.4170 
298 O      -19.5432    22.7750    44.7735 O.3   100 HOH   0.0000 
299 H1     -18.5832    22.7750    44.7735 H     100 HOH   0.0000 
300 H2     -19.8335    23.4221    45.4206 H     100 HOH   0.0000 
301 O       -0.0215    12.4365    26.6233 O.3   101 HOH   0.0000 
302 H1       0.9385    12.4365    26.6233 H     101 HOH   0.0000 
303 H2      -0.3117    13.0835    27.2704 H     101 HOH   0.0000 
304 O       -1.8742     1.5074    18.2731 O.3   102 HOH   0.0000 
305 H1      -0.9142     1.5074    18.2731 H     102 HOH   0.0000 
306 H2      -2.1644     2.1544    18.9201 H     102 HOH   0.0000 
307 O      -10.5062    24.1388    17.6939 O.3   103 HOH   0.0000 
308 H1      -9.5462    24.1388    17.6939 H     103 HOH   0.0000 
309 H2     -10.7965    24.7858    18.3409 H     103 HOH   0.0000 
310 O      -16.0730    21.5864    14.1295 O.3   104 HOH   0.0000 
311 H1     -15.1130    21.5864    14.1295 H     104 HOH   0.0000 
312 H2     -16.3633    22.2335    14.7766 H     104 HOH   0.0000 
313 O       -3.9975    29.6365    13.9607 O.3   105 HOH   0.0000 
314 H1      -3.0375    29.6365    13.9607 H     105 HOH   0.0000 
315 H2      -4.2878    30.2836    14.6078 H     105 HOH   0.0000 
316 O      -24.7657     8.1611    43.6734 O.3   106 HOH   0.0000 
317 H1     -23.8057     8.1611    43.6734 H     106 HOH   0.0000 
318 H2     -25.0560     8.8081    44.3204 H     106 HOH   0.0000 
319 O       13.1340    29.2135    34.1510 O.3   107 HOH   0.0000 
320 H1      14.0940    29.2135    34.1510 H     107 HOH   0.0000 
321 H2      12.8437    29.8605    34.7981 H     107 HOH   0.0000 
322 O      -27.2203     3.5791    28.6523 O.3   108 HOH   0.0000 
323 H1     -26.2603     3.5791    28.6523 H     108 HOH   0.0000 
324 H2     -27.5106     4.2262    29.2994 H     108 HOH   0.0000 
325 O        8.2746    35.6046    31.5862 O.3   109 HOH   0.0000 
326 H1       9.2346    35.6046    31.5862 H     109 HOH   0.0000 
327 H2       7.9843    36.2517    32.2332 H     109 HOH   0.0000 
328 O      -29.2152    11.0421    32.8430 O.3   110 HOH   0.0000 
329 H1     -28.2552    11.0421    32.8430 H     110 HOH   0.0000 
330 H2     -29.5055    11.6891    33.4900 H     110 HOH   0.0000 
331 O        9.9321    33.3857    51.7288 O.3   111 HOH   0.0000 
332 H1      10.8921    33.3857    51.7288 H     111 HOH   0.0000 
333 H2       9.6418    34.0327    52.3759 H     111 HOH   0.0000 
334 O       -2.4972    14.5713    10.5986 O.3   112 HOH   0.0000 
335 H1      -1.5372    14.5713    10.5986 H     112 HOH   0.0000 
336 H2      -2.7874    15.2184    11.2457 H     112 HOH   0.0000 
337 O       -0.9597     3.9130    11.6471 O.3   113 HOH   0.0000 
338 H1       0.0003     3.9130    11.6471 H     113 HOH   0.0000 
339 H2      -1.2500     4.5600    12.2941 H     113 HOH   0.0000 
340 O      -26.5706    12.5321    44.4258 O.3   114 HOH   0.0000 
341 H1     -25.6106    12.5321    44.4258 H     114 HOH   0.0000 
342 H2     -26.8608    13.1792    45.0728 H     114 HOH   0.0000 
343 O       20.9093     6.0174    34.0222 O.3   115 HOH   0.0000 
344 H1      21.8693     6.0174    34.0222 H     115 HOH   0.0000 
345 H2      20.6190     6.6644    34.6692 H     115 HOH   0.0000 
346 O       21.8663    39.2837    41.5977 O.3   116 HOH   0.0000 
347 H1      22.8263    39.2837    41.5977 H     116 HOH   0.0000 
348 H2      21.5760    39.9308    42.2448 H     116 HOH   0.0000 
349 O       19.0208    31.3279    48.2351 O.3   117 HOH   0.0000 
350 H1      19.9808    31.3279    48.2351 H     117 HOH   0.0000 
351 H2      18.7306    31.9749    48.8821 H     117 HOH   0.0000 
352 O       -1.4676    28.2963    53.0496 O.3   118 HOH   0.0000 
353 H1      -0.5076    28.2963    53.0496 H     118 HOH   0.0000 
354 H2      -1.7579    28.9434    53.6966 H     118 HOH   0.0000 
355 O       -2.7591    29.8360    36.0898 O.3   119 HOH   0.0000 
356 H1      -1.7991    29.8360    36.0898 H     119 HOH   0.0000 
357 H2      -3.0493    30.4830    36.7369 H     119 HOH   0.0000 
358 O        0.5127    35.5772    31.2152 O.3   120 HOH   0.0000 
359 H1       1.4727    35.5772    31.2152 H     120 HOH   0.0000 
360 H2       0.2224    36.2242    31.8623 H     120 HOH   0.0000 
361 O       -1.9884    13.1155    43.4215 O.3   121 HOH  -0.8340 
362 H1      -1.5701    12.2908    43.6689 H     121 HOH   0.4170 
363 H2      -1.8091    13.7048    44.1542 H     121 HOH   0.4170 
364 O      -18.4629    30.1350    27.0631 O.3   122 HOH   0.0000 
365 H1     -17.5029    30.1350    27.0631 H     122 HOH   0.0000 
366 H2     -18.7531    30.7821    27.7102 H     122 HOH   0.0000 
367 O        0.2551    30.9777    15.9088 O.3   123 HOH   0.0000 
368 H1       1.2151    30.9777    15.9088 H     123 HOH   0.0000 
369 H2      -0.0352    31.6248    16.5558 H     123 HOH   0.0000 
370 O        8.5430    16.9105    29.5270 O.3   124 HOH   0.0000 
371 H1       9.5030    16.9105    29.5270 H     124 HOH   0.0000 
372 H2       8.2527    17.5576    30.1741 H     124 HOH   0.0000 
373 O        8.5988    19.4102    16.0839 O.3   125 HOH  -0.8340 
374 H1       9.4811    19.0749    16.2430 H     125 HOH   0.4170 
375 H2       8.0271    18.6541    16.2166 H     125 HOH   0.4170 
376 O        8.8636    18.7138    13.7373 O.3   126 HOH  -0.8340 
377 H1       8.0307    18.2641    13.5946 H     126 HOH   0.4170 
378 H2       8.7800    19.1032    14.6076 H     126 HOH   0.4170 
379 O       -0.8676    -1.6506    19.7264 O.3   127 HOH   0.0000 
380 H1       0.0924    -1.6506    19.7264 H     127 HOH   0.0000 
381 H2      -1.1579    -1.0035    20.3734 H     127 HOH   0.0000 
382 O       -9.2122     5.2973     7.2078 O.3   128 HOH   0.0000 
383 H1      -8.2522     5.2973     7.2078 H     128 HOH   0.0000 
384 H2      -9.5025     5.9443     7.8548 H     128 HOH   0.0000 
385 O      -15.5592    21.7895    10.6902 O.3   129 HOH   0.0000 
386 H1     -14.5992    21.7895    10.6902 H     129 HOH   0.0000 
387 H2     -15.8495    22.4366    11.3373 H     129 HOH   0.0000 
388 O      -20.5697    22.5240    18.9305 O.3   130 HOH   0.0000 
389 H1     -19.6097    22.5240    18.9305 H     130 HOH   0.0000 
390 H2     -20.8599    23.1710    19.5776 H     130 HOH   0.0000 
391 O       -2.0364     3.9856    30.8555 O.3   131 HOH   0.0000 
392 H1      -1.0764     3.9856    30.8555 H     131 HOH   0.0000 
393 H2      -2.3267     4.6327    31.5026 H     131 HOH   0.0000 
394 O       -4.1973     2.4780    29.5269 O.3   132 HOH   0.0000 
395 H1      -3.2373     2.4780    29.5269 H     132 HOH   0.0000 
396 H2      -4.4875     3.1250    30.1739 H     132 HOH   0.0000 
397 O      -19.6250     1.9941    31.2410 O.3   133 HOH  -0.8340 
398 H1     -20.4155     1.6218    30.8502 H     133 HOH   0.4170 
399 H2     -19.9360     2.7518    31.7363 H     133 HOH   0.4170 
400 O      -16.8787    23.5416    12.0899 O.3   134 HOH   0.0000 
401 H1     -15.9187    23.5416    12.0899 H     134 HOH   0.0000 
402 H2     -17.1690    24.1886    12.7370 H     134 HOH   0.0000 
403 O       -6.5515    19.7625    12.9769 O.3   135 HOH   0.0000 
404 H1      -5.5915    19.7625    12.9769 H     135 HOH   0.0000 
405 H2      -6.8417    20.4095    13.6239 H     135 HOH   0.0000 
406 O       16.7626    37.3276    38.1300 O.3   136 HOH   0.0000 
407 H1      17.7226    37.3276    38.1300 H     136 HOH   0.0000 
408 H2      16.4723    37.9746    38.7770 H     136 HOH   0.0000 
409 O       20.4828    35.3921    40.3337 O.3   137 HOH   0.0000 
410 H1      21.4428    35.3921    40.3337 H     137 HOH   0.0000 
411 H2      20.1925    36.0392    40.9808 H     137 HOH   0.0000 
412 O      -15.1346    26.3587    42.9627 O.3   138 HOH   0.0000 
413 H1     -14.1746    26.3587    42.9627 H     138 HOH   0.0000 
414 H2     -15.4249    27.0057    43.6098 H     138 HOH   0.0000 
415 O      -30.4986     5.3192    30.8397 O.3   139 HOH   0.0000 
416 H1     -29.5386     5.3192    30.8397 H     139 HOH   0.0000 
417 H2     -30.7889     5.9663    31.4868 H     139 HOH   0.0000 
418 O       -3.8835    -0.8600    14.2804 O.3   140 HOH   0.0000 
419 H1      -2.9235    -0.8600    14.2804 H     140 HOH   0.0000 
420 H2      -4.1738    -0.2130    14.9274 H     140 HOH   0.0000 
421 O       12.1658    12.8856    44.0774 O.3   141 HOH   0.0000 
422 H1      13.1258    12.8856    44.0774 H     141 HOH   0.0000 
423 H2      11.8755    13.5326    44.7244 H     141 HOH   0.0000 
424 O      -21.3737    25.5138    21.4503 O.3   142 HOH   0.0000 
425 H1     -20.4137    25.5138    21.4503 H     142 HOH   0.0000 
426 H2     -21.6640    26.1609    22.0973 H     142 HOH   0.0000 
427 O       -5.0058    16.6242    15.0337 O.3   143 HOH   0.0000 
428 H1      -4.0458    16.6242    15.0337 H     143 HOH   0.0000 
429 H2      -5.2961    17.2712    15.6807 H     143 HOH   0.0000 
430 O       -2.4453     8.9699    38.7555 O.3   144 HOH   0.0000 
431 H1      -1.4853     8.9699    38.7555 H     144 HOH   0.0000 
432 H2      -2.7356     9.6170    39.4026 H     144 HOH   0.0000 
433 O      -14.5719    19.3531     7.8056 O.3   145 HOH   0.0000 
434 H1     -13.6119    19.3531     7.8056 H     145 HOH   0.0000 
435 H2     -14.8622    20.0002     8.4527 H     145 HOH   0.0000 
436 O       -2.1469    14.4215     7.2714 O.3   146 HOH   0.0000 
437 H1      -1.1869    14.4215     7.2714 H     146 HOH   0.0000 
438 H2      -2.4371    15.0686     7.9184 H     146 HOH   0.0000 
439 O       -1.2026    16.9872    51.7607 O.3   147 HOH  -0.8340 
440 H1      -0.2911    16.8579    52.0225 H     147 HOH   0.4170 
441 H2      -1.5775    17.5281    52.4558 H     147 HOH   0.4170 
442 O        4.5792    18.5625    35.6668 O.3   148 HOH  -0.8340 
443 H1       4.6500    19.3003    35.0612 H     148 HOH   0.4170 
444 H2       4.1972    17.8581    35.1433 H     148 HOH   0.4170 
445 O       -0.8824    28.8441    56.1895 O.3   149 HOH   0.0000 
446 H1       0.0776    28.8441    56.1895 H     149 HOH   0.0000 
447 H2      -1.1727    29.4911    56.8365 H     149 HOH   0.0000 
448 O      -17.0809    28.1732    33.2223 O.3   150 HOH   0.0000 
449 H1     -16.1209    28.1732    33.2223 H     150 HOH   0.0000 
450 H2     -17.3712    28.8203    33.8693 H     150 HOH   0.0000 
451 O      -26.4357    15.2132    46.0066 O.3   151 HOH   0.0000 
452 H1     -25.4757    15.2132    46.0066 H     151 HOH   0.0000 
453 H2     -26.7259    15.8603    46.6537 H     151 HOH   0.0000 
454 O        4.9862    40.5059    49.8646 O.3   152 HOH   0.0000 
455 H1       5.9462    40.5059    49.8646 H     152 HOH   0.0000 
456 H2       4.6960    41.1529    50.5116 H     152 HOH   0.0000 
457 O        3.7001    19.3810    11.6570 O.3   153 HOH  -0.8340 
458 H1       4.1468    18.6210    12.0299 H     153 HOH   0.4170 
459 H2       2.7889    19.1025    11.5648 H     153 HOH   0.4170 
460 O      -25.5011    23.5220    25.4119 O.3   154 HOH   0.0000 
461 H1     -24.5411    23.5220    25.4119 H     154 HOH   0.0000 
462 H2     -25.7914    24.1690    26.0589 H     154 HOH   0.0000 
463 O       17.2470    19.5143    39.8775 O.3   155 HOH   0.0000 
464 H1      18.2070    19.5143    39.8775 H     155 HOH   0.0000 
465 H2      16.9567    20.1613    40.5246 H     155 HOH   0.0000 
466 O      -30.4586    16.0487    25.2441 O.3   156 HOH   0.0000 
467 H1     -29.4986    16.0487    25.2441 H     156 HOH   0.0000 
468 H2     -30.7489    16.6957    25.8912 H     156 HOH   0.0000 
469 O        1.2931    10.6443    44.1162 O.3   157 HOH  -0.8340 
470 H1       1.7594    11.2035    44.7375 H     157 HOH   0.4170 
471 H2       1.9023     9.9292    43.9329 H     157 HOH   0.4170 
472 O        2.6857     7.7641    20.6899 O.3   158 HOH   0.0000 
473 H1       3.6457     7.7641    20.6899 H     158 HOH   0.0000 
474 H2       2.3954     8.4111    21.3370 H     158 HOH   0.0000 
475 O        2.8119    31.1747    17.9173 O.3   159 HOH   0.0000 
476 H1       3.7719    31.1747    17.9173 H     159 HOH   0.0000 
477 H2       2.5216    31.8218    18.5643 H     159 HOH   0.0000 
478 O      -25.1787    29.5400    32.2988 O.3   160 HOH   0.0000 
479 H1     -24.2187    29.5400    32.2988 H     160 HOH   0.0000 
480 H2     -25.4690    30.1870    32.9458 H     160 HOH   0.0000 
481 O        1.9075     5.0249    12.7850 O.3   161 HOH   0.0000 
482 H1       2.8675     5.0249    12.7850 H     161 HOH   0.0000 
483 H2       1.6173     5.6719    13.4320 H     161 HOH   0.0000 
484 O      -12.9406    31.6165    22.7504 O.3   162 HOH   0.0000 
485 H1     -11.9806    31.6165    22.7504 H     162 HOH   0.0000 
486 H2     -13.2309    32.2636    23.3975 H     162 HOH   0.0000 
487 O        3.7127    12.4768    35.0188 O.3   163 HOH   0.0000 
488 H1       4.6727    12.4768    35.0188 H     163 HOH   0.0000 
489 H2       3.4224    13.1239    35.6659 H     163 HOH   0.0000 
490 O       -3.5260    26.0510    48.5829 O.3   164 HOH   0.0000 
491 H1      -2.5660    26.0510    48.5829 H     164 HOH   0.0000 
492 H2      -3.8163    26.6981    49.2299 H     164 HOH   0.0000 
493 O       -8.3430    24.2095    15.8449 O.3   165 HOH   0.0000 
494 H1      -7.3830    24.2095    15.8449 H     165 HOH   0.0000 
495 H2      -8.6333    24.8565    16.4919 H     165 HOH   0.0000 
@<TRIPOS>BOND
  1   1   2  1   
  2   1   3  1   
  3   4   5  1   
  4   4   6  1   
  5   7   8  1   
  6   7   9  1   
  7  10  11  1   
  8  10  12  1   
  9  13  14  1   
 10  13  15  1   
 11  16  17  1   
 12  16  18  1   
 13  19  20  1   
 14  19  21  1   
 15  22  23  1   
 16  22  24  1   
 17  25  26  1   
 18  25  27  1   
 19  28  29  1   
 20  28  30  1   
 21  31  32  1   
 22  31  33  1   
 23  34  35  1   
 24  34  36  1   
 25  37  38  1   
 26  37  39  1   
 27  40  41  1   
 28  40  42  1   
 29  43  44  1   
 30  43  45  1   
 31  46  47  1   
 32  46  48  1   
 33  49  50  1   
 34  49  51  1   
 35  52  53  1   
 36  52  54  1   
 37  55  56  1   
 38  55  57  1   
 39  58  59  1   
 40  58  60  1   
 41  61  62  1   
 42  61  63  1   
 43  64  65  1   
 44  64  66  1   
 45  67  68  1   
 46  67  69  1   
 47  70  71  1   
 48  70  72  1   
 49  73  74  1   
 50  73  75  1   
 51  76  77  1   
 52  76  78  1   
 53  79  80  1   
 54  79  81  1   
 55  82  83  1   
 56  82  84  1   
 57  85  86  1   
 58  85  87  1   
 59  88  89  1   
 60  88  90  1   
 61  91  92  1   
 62  91  93  1   
 63  94  95  1   
 64  94  96  1   
 65  97  98  1   
 66  97  99  1   
 67 100 101  1   
 68 100 102  1   
 69 103 104  1   
 70 103 105  1   
 71 106 107  1   
 72 106 108  1   
 73 109 110  1   
 74 109 111  1   
 75 112 113  1   
 76 112 114  1   
 77 115 116  1   
 78 115 117  1   
 79 118 119  1   
 80 118 120  1   
 81 121 122  1   
 82 121 123  1   
 83 124 125  1   
 84 124 126  1   
 85 127 128  1   
 86 127 129  1   
 87 130 131  1   
 88 130 132  1   
 89 133 134  1   
 90 133 135  1   
 91 136 137  1   
 92 136 138  1   
 93 139 140  1   
 94 139 141  1   
 95 142 143  1   
 96 142 144  1   
 97 145 146  1   
 98 145 147  1   
 99 148 149  1   
100 148 150  1   
101 151 152  1   
102 151 153  1   
103 154 155  1   
104 154 156  1   
105 157 158  1   
106 157 159  1   
107 160 161  1   
108 160 162  1   
109 163 164  1   
110 163 165  1   
111 166 167  1   
112 166 168  1   
113 169 170  1   
114 169 171  1   
115 172 173  1   
116 172 174  1   
117 175 176  1   
118 175 177  1   
119 178 179  1   
120 178 180  1   
121 181 182  1   
122 181 183  1   
123 184 185  1   
124 184 186  1   
125 187 188  1   
126 187 189  1   
127 190 191  1   
128 190 192  1   
129 193 194  1   
130 193 195  1   
131 196 197  1   
132 196 198  1   
133 199 200  1   
134 199 201  1   
135 202 203  1   
136 202 204  1   
137 205 206  1   
138 205 207  1   
139 208 209  1   
140 208 210  1   
141 211 212  1   
142 211 213  1   
143 214 215  1   
144 214 216  1   
145 217 218  1   
146 217 219  1   
147 220 221  1   
148 220 222  1   
149 223 224  1   
150 223 225  1   
151 226 227  1   
152 226 228  1   
153 229 230  1   
154 229 231  1   
155 232 233  1   
156 232 234  1   
157 235 236  1   
158 235 237  1   
159 238 239  1   
160 238 240  1   
161 241 242  1   
162 241 243  1   
163 244 245  1   
164 244 246  1   
165 247 248  1   
166 247 249  1   
167 250 251  1   
168 250 252  1   
169 253 254  1   
170 253 255  1   
171 256 257  1   
172 256 258  1   
173 259 260  1   
174 259 261  1   
175 262 263  1   
176 262 264  1   
177 265 266  1   
178 265 267  1   
179 268 269  1   
180 268 270  1   
181 271 272  1   
182 271 273  1   
183 274 275  1   
184 274 276  1   
185 277 278  1   
186 277 279  1   
187 280 281  1   
188 280 282  1   
189 283 284  1   
190 283 285  1   
191 286 287  1   
192 286 288  1   
193 289 290  1   
194 289 291  1   
195 292 293  1   
196 292 294  1   
197 295 296  1   
198 295 297  1   
199 298 299  1   
200 298 300  1   
201 301 302  1   
202 301 303  1   
203 304 305  1   
204 304 306  1   
205 307 308  1   
206 307 309  1   
207 310 311  1   
208 310 312  1   
209 313 314  1   
210 313 315  1   
211 316 317  1   
212 316 318  1   
213 319 320  1   
214 319 321  1   
215 322 323  1   
216 322 324  1   
217 325 326  1   
218 325 327  1   
219 328 329  1   
220 328 330  1   
221 331 332  1   
222 331 333  1   
223 334 335  1   
224 334 336  1   
225 337 338  1   
226 337 339  1   
227 340 341  1   
228 340 342  1   
229 343 344  1   
230 343 345  1   
231 346 347  1   
232 346 348  1   
233 349 350  1   
234 349 351  1   
235 352 353  1   
236 352 354  1   
237 355 356  1   
238 355 357  1   
239 358 359  1   
240 358 360  1   
241 361 362  1   
242 361 363  1   
243 364 365  1   
244 364 366  1   
245 367 368  1   
246 367 369  1   
247 370 371  1   
248 370 372  1   
249 373 374  1   
250 373 375  1   
251 376 377  1   
252 376 378  1   
253 379 380  1   
254 379 381  1   
255 382 383  1   
256 382 384  1   
257 385 386  1   
258 385 387  1   
259 388 389  1   
260 388 390  1   
261 391 392  1   
262 391 393  1   
263 394 395  1   
264 394 396  1   
265 397 398  1   
266 397 399  1   
267 400 401  1   
268 400 402  1   
269 403 404  1   
270 403 405  1   
271 406 407  1   
272 406 408  1   
273 409 410  1   
274 409 411  1   
275 412 413  1   
276 412 414  1   
277 415 416  1   
278 415 417  1   
279 418 419  1   
280 418 420  1   
281 421 422  1   
282 421 423  1   
283 424 425  1   
284 424 426  1   
285 427 428  1   
286 427 429  1   
287 430 431  1   
288 430 432  1   
289 433 434  1   
290 433 435  1   
291 436 437  1   
292 436 438  1   
293 439 440  1   
294 439 441  1   
295 442 443  1   
296 442 444  1   
297 445 446  1   
298 445 447  1   
299 448 449  1   
300 448 450  1   
301 451 452  1   
302 451 453  1   
303 454 455  1   
304 454 456  1   
305 457 458  1   
306 457 459  1   
307 460 461  1   
308 460 462  1   
309 463 464  1   
310 463 465  1   
311 466 467  1   
312 466 468  1   
313 469 470  1   
314 469 471  1   
315 472 473  1   
316 472 474  1   
317 475 476  1   
318 475 477  1   
319 478 479  1   
320 478 480  1   
321 481 482  1   
322 481 483  1   
323 484 485  1   
324 484 486  1   
325 487 488  1   
326 487 489  1   
327 490 491  1   
328 490 492  1   
329 493 494  1   
330 493 495  1   
@<TRIPOS>SUBSTRUCTURE
  1 HOH   1 GROUP 4 B **** 0
  2 HOH   4 GROUP 4 B **** 0
  3 HOH   7 GROUP 4 B **** 0
  4 HOH  10 GROUP 4 B **** 0
  5 HOH  13 GROUP 4 B **** 0
  6 HOH  16 GROUP 4 B **** 0
  7 HOH  19 GROUP 4 B **** 0
  8 HOH  22 GROUP 4 B **** 0
  9 HOH  25 GROUP 4 B **** 0
 10 HOH  28 GROUP 4 B **** 0
 11 HOH  31 GROUP 4 B **** 0
 12 HOH  34 GROUP 4 B **** 0
 13 HOH  37 GROUP 4 B **** 0
 14 HOH  40 GROUP 4 B **** 0
 15 HOH  43 GROUP 4 B **** 0
 16 HOH  46 GROUP 4 B **** 0
 17 HOH  49 GROUP 4 B **** 0
 18 HOH  52 GROUP 4 B **** 0
 19 HOH  55 GROUP 4 B **** 0
 20 HOH  58 GROUP 4 B **** 0
 21 HOH  61 GROUP 4 B **** 0
 22 HOH  64 GROUP 4 B **** 0
 23 HOH  67 GROUP 4 B **** 0
 24 HOH  70 GROUP 4 B **** 0
 25 HOH  73 GROUP 4 B **** 0
 26 HOH  76 GROUP 4 B **** 0
 27 HOH  79 GROUP 4 B **** 0
 28 HOH  82 GROUP 4 B **** 0
 29 HOH  85 GROUP 4 B **** 0
 30 HOH  88 GROUP 4 B **** 0
 31 HOH  91 GROUP 4 B **** 0
 32 HOH  94 GROUP 4 B **** 0
 33 HOH  97 GROUP 4 B **** 0
 34 HOH 100 GROUP 4 B **** 0
 35 HOH 103 GROUP 4 B **** 0
 36 HOH 106 GROUP 4 B **** 0
 37 HOH 109 GROUP 4 B **** 0
 38 HOH 112 GROUP 4 B **** 0
 39 HOH 115 GROUP 4 B **** 0
 40 HOH 118 GROUP 4 B **** 0
 41 HOH 121 GROUP 4 B **** 0
 42 HOH 124 GROUP 4 B **** 0
 43 HOH 127 GROUP 4 B **** 0
 44 HOH 130 GROUP 4 B **** 0
 45 HOH 133 GROUP 4 B **** 0
 46 HOH 136 GROUP 4 B **** 0
 47 HOH 139 GROUP 4 B **** 0
 48 HOH 142 GROUP 4 B **** 0
 49 HOH 145 GROUP 4 B **** 0
 50 HOH 148 GROUP 4 B **** 0
 51 HOH 151 GROUP 4 B **** 0
 52 HOH 154 GROUP 4 B **** 0
 53 HOH 157 GROUP 4 B **** 0
 54 HOH 160 GROUP 4 B **** 0
 55 HOH 163 GROUP 4 B **** 0
 56 HOH 166 GROUP 4 B **** 0
 57 HOH 169 GROUP 4 B **** 0
 58 HOH 172 GROUP 4 B **** 0
 59 HOH 175 GROUP 4 B **** 0
 60 HOH 178 GROUP 4 B **** 0
 61 HOH 181 GROUP 4 B **** 0
 62 HOH 184 GROUP 4 B **** 0
 63 HOH 187 GROUP 4 B **** 0
 64 HOH 190 GROUP 4 B **** 0
 65 HOH 193 GROUP 4 B **** 0
 66 HOH 196 GROUP 4 B **** 0
 67 HOH 199 GROUP 4 B **** 0
 68 HOH 202 GROUP 4 B **** 0
 69 HOH 205 GROUP 4 B **** 0
 70 HOH 208 GROUP 4 B **** 0
 71 HOH 211 GROUP 4 B **** 0
 72 HOH 214 GROUP 4 B **** 0
 73 HOH 217 GROUP 4 B **** 0
 74 HOH 220 GROUP 4 B **** 0
 75 HOH 223 GROUP 4 B **** 0
 76 HOH 226 GROUP 4 B **** 0
 77 HOH 229 GROUP 4 B **** 0
 78 HOH 232 GROUP 4 B **** 0
 79 HOH 235 GROUP 4 B **** 0
 80 HOH 238 GROUP 4 B **** 0
 81 HOH 241 GROUP 4 B **** 0
 82 HOH 244 GROUP 4 B **** 0
 83 HOH 247 GROUP 4 B **** 0
 84 HOH 250 GROUP 4 B **** 0
 85 HOH 253 GROUP 4 B **** 0
 86 HOH 256 GROUP 4 B **** 0
 87 HOH 259 GROUP 4 B **** 0
 88 HOH 262 GROUP 4 B **** 0
 89 HOH 265 GROUP 4 B **** 0
 90 HOH 268 GROUP 4 B **** 0
 91 HOH 271 GROUP 4 B **** 0
 92 HOH 274 GROUP 4 B **** 0
 93 HOH 277 GROUP 4 B **** 0
 94 HOH 280 GROUP 4 B **** 0
 95 HOH 283 GROUP 4 B **** 0
 96 HOH 286 GROUP 4 B **** 0
 97 HOH 289 GROUP 4 B **** 0
 98 HOH 292 GROUP 4 B **** 0
 99 HOH 295 GROUP 4 B **** 0
100 HOH 298 GROUP 4 B **** 0
101 HOH 301 GROUP 4 B **** 0
102 HOH 304 GROUP 4 B **** 0
103 HOH 307 GROUP 4 B **** 0
104 HOH 310 GROUP 4 B **** 0
105 HOH 313 GROUP 4 B **** 0
106 HOH 316 GROUP 4 B **** 0
107 HOH 319 GROUP 4 B **** 0
108 HOH 322 GROUP 4 B **** 0
109 HOH 325 GROUP 4 B **** 0
110 HOH 328 GROUP 4 B **** 0
111 HOH 331 GROUP 4 B **** 0
112 HOH 334 GROUP 4 B **** 0
113 HOH 337 GROUP 4 B **** 0
114 HOH 340 GROUP 4 B **** 0
115 HOH 343 GROUP 4 B **** 0
116 HOH 346 GROUP 4 B **** 0
117 HOH 349 GROUP 4 B **** 0
118 HOH 352 GROUP 4 B **** 0
119 HOH 355 GROUP 4 B **** 0
120 HOH 358 GROUP 4 B **** 0
121 HOH 361 GROUP 4 B **** 0
122 HOH 364 GROUP 4 B **** 0
123 HOH 367 GROUP 4 B **** 0
124 HOH 370 GROUP 4 B **** 0
125 HOH 373 GROUP 4 B **** 0
126 HOH 376 GROUP 4 B **** 0
127 HOH 379 GROUP 4 B **** 0
128 HOH 382 GROUP 4 B **** 0
129 HOH 385 GROUP 4 B **** 0
130 HOH 388 GROUP 4 B **** 0
131 HOH 391 GROUP 4 B **** 0
132 HOH 394 GROUP 4 B **** 0
133 HOH 397 GROUP 4 B **** 0
134 HOH 400 GROUP 4 B **** 0
135 HOH 403 GROUP 4 B **** 0
136 HOH 406 GROUP 4 B **** 0
137 HOH 409 GROUP 4 B **** 0
138 HOH 412 GROUP 4 B **** 0
139 HOH 415 GROUP 4 B **** 0
140 HOH 418 GROUP 4 B **** 0
141 HOH 421 GROUP 4 B **** 0
142 HOH 424 GROUP 4 B **** 0
143 HOH 427 GROUP 4 B **** 0
144 HOH 430 GROUP 4 B **** 0
145 HOH 433 GROUP 4 B **** 0
146 HOH 436 GROUP 4 B **** 0
147 HOH 439 GROUP 4 B **** 0
148 HOH 442 GROUP 4 B **** 0
149 HOH 445 GROUP 4 B **** 0
150 HOH 448 GROUP 4 B **** 0
151 HOH 451 GROUP 4 B **** 0
152 HOH 454 GROUP 4 B **** 0
153 HOH 457 GROUP 4 B **** 0
154 HOH 460 GROUP 4 B **** 0
155 HOH 463 GROUP 4 B **** 0
156 HOH 466 GROUP 4 B **** 0
157 HOH 469 GROUP 4 B **** 0
158 HOH 472 GROUP 4 B **** 0
159 HOH 475 GROUP 4 B **** 0
160 HOH 478 GROUP 4 B **** 0
161 HOH 481 GROUP 4 B **** 0
162 HOH 484 GROUP 4 B **** 0
163 HOH 487 GROUP 4 B **** 0
164 HOH 490 GROUP 4 B **** 0
165 HOH 493 GROUP 4 B **** 0

# MOE 2012.10 (io_trps.svl 2012.10)
