@<TRIPOS>MOLECULE
2hz0.A
53 55 1 0 0 
SMALL
USER_CHARGES


@<TRIPOS>ATOM
  1 C12      1.6318    23.1438    34.8634 C.2   1 GIN   0.5438 
  2 C16      1.1645    23.6508    32.5435 C.ar  1 GIN   0.1170 
  3 C19     -0.5687    23.8201    30.2284 C.ar  1 GIN  -0.1435 
  4 C20      0.8303    23.4448    30.1091 C.ar  1 GIN  -0.1500 
  5 H20      1.2321    23.2182    29.1326 H     1 GIN   0.1500 
  6 C21      1.6836    23.3679    31.2420 C.ar  1 GIN  -0.1500 
  7 H21      2.7219    23.0965    31.1205 H     1 GIN   0.1500 
  8 C24     -1.3981    23.8947    28.9523 C.3   1 GIN  -0.0165 
  9 H241    -2.4456    23.7317    29.2056 H     1 GIN   0.0800 
 10 H242    -1.0632    23.1127    28.2708 H     1 GIN   0.0800 
 11 C30     -1.2632    25.2887    28.2286 C.3   1 GIN  -0.1600 
 12 H301    -0.2150    25.4795    27.9984 H     1 GIN   0.0800 
 13 H302    -1.6410    26.0758    28.8812 H     1 GIN   0.0800 
 14 C31     -2.0838    25.2659    26.9184 C.3   1 GIN  -0.2400 
 15 H311    -1.7054    24.4787    26.2664 H     1 GIN   0.0800 
 16 H312    -1.9928    26.2289    26.4159 H     1 GIN   0.0800 
 17 H313    -3.1317    25.0742    27.1492 H     1 GIN   0.0800 
 18 C32      1.7073    20.3031    37.9996 C.3   1 GIN   0.3473 
 19 H321     1.0496    19.5666    37.5379 H     1 GIN   0.0800 
 20 H322     2.7382    19.9531    37.9469 H     1 GIN   0.0800 
 21 C33      1.2976    20.5214    39.4852 C.2   1 GIN  -0.1382 
 22 C34      1.2828    19.4017    40.3790 C.2   1 GIN  -0.1500 
 23 H34      1.5577    18.4266    40.0048 H     1 GIN   0.1500 
 24 C35      0.9325    19.5341    41.6831 C.2   1 GIN  -0.1356 
 25 H35      0.9458    18.6612    42.3190 H     1 GIN   0.1500 
 26 C01      2.6885    23.2749    35.9160 C.ar  1 GIN   0.0862 
 27 C02      3.7355    24.2015    35.7423 C.ar  1 GIN  -0.1500 
 28 H02      3.7577    24.8156    34.8543 H     1 GIN   0.1500 
 29 C03      4.7534    24.3417    36.7049 C.ar  1 GIN  -0.1500 
 30 H03      5.5529    25.0492    36.5420 H     1 GIN   0.1500 
 31 C04      4.7344    23.5638    37.8795 C.ar  1 GIN  -0.1500 
 32 H04      5.5167    23.6640    38.6173 H     1 GIN   0.1500 
 33 C05      3.6599    22.6378    38.0783 C.ar  1 GIN  -0.1500 
 34 H05      3.6247    22.0425    38.9788 H     1 GIN   0.1500 
 35 C06      2.6518    22.4986    37.1106 C.ar  1 GIN   0.1000 
 36 N11      1.5810    21.5883    37.3064 N.pl3 1 GIN  -0.8691 
 37 H11      0.6729    21.8425    36.9445 H     1 GIN   0.4000 
 38 N13      1.9973    23.6160    33.6604 N.am  1 GIN  -0.5470 
 39 H13      2.9380    23.9693    33.5584 H     1 GIN   0.3700 
 40 O14      0.5189    22.6307    35.1168 O.2   1 GIN  -0.5700 
 41 C17     -0.1923    24.0106    32.6513 C.ar  1 GIN  -0.1500 
 42 H17     -0.5848    24.2464    33.6294 H     1 GIN   0.1500 
 43 C18     -1.0855    24.0799    31.5180 C.ar  1 GIN  -0.1435 
 44 C23     -2.5576    24.4799    31.7640 C.3   1 GIN   1.1635 
 45 F27     -2.8147    24.7480    33.0562 F     1 GIN  -0.3400 
 46 F28     -2.9741    25.5335    31.1154 F     1 GIN  -0.3400 
 47 F29     -3.3870    23.5154    31.4277 F     1 GIN  -0.3400 
 48 C36      0.5404    20.8111    42.2514 C.2   1 GIN   0.6156 
 49 N37      0.5738    21.8686    41.3318 N.am  1 GIN  -0.5390 
 50 H37      0.3203    22.7884    41.6633 H     1 GIN   0.3700 
 51 C38      0.9337    21.7375    39.9877 C.2   1 GIN  -0.0410 
 52 H38      0.9240    22.6036    39.3425 H     1 GIN   0.1500 
 53 O41      0.2583    20.9620    43.4182 O.2   1 GIN  -0.5700 
@<TRIPOS>BOND
  1   1  26  1   
  2   1  38  am  
  3   1  40  2   
  4   2   6  ar  
  5   2  38  1   
  6   2  41  ar  
  7   3   4  ar  
  8   3   8  1   
  9   3  43  ar  
 10   4   5  1   
 11   4   6  ar  
 12   6   7  1   
 13   8   9  1   
 14   8  10  1   
 15   8  11  1   
 16  11  12  1   
 17  11  13  1   
 18  11  14  1   
 19  14  15  1   
 20  14  16  1   
 21  14  17  1   
 22  18  19  1   
 23  18  20  1   
 24  18  21  1   
 25  18  36  1   
 26  21  22  1   
 27  21  51  2   
 28  22  23  1   
 29  22  24  2   
 30  24  25  1   
 31  24  48  1   
 32  26  27  ar  
 33  26  35  ar  
 34  27  28  1   
 35  27  29  ar  
 36  29  30  1   
 37  29  31  ar  
 38  31  32  1   
 39  31  33  ar  
 40  33  34  1   
 41  33  35  ar  
 42  35  36  1   
 43  36  37  1   
 44  38  39  1   
 45  41  42  1   
 46  41  43  ar  
 47  43  44  1   
 48  44  45  1   
 49  44  46  1   
 50  44  47  1   
 51  48  49  am  
 52  48  53  2   
 53  49  50  1   
 54  49  51  1   
 55  51  52  1   
@<TRIPOS>SUBSTRUCTURE
  1 GIN  40 GROUP 4 A **** 0

# MOE 2012.10 (io_trps.svl 2012.10)
