@<TRIPOS>MOLECULE
4wa9.B
46 49 1 0 0 
SMALL
USER_CHARGES


@<TRIPOS>ATOM
  1 O81      5.3686    18.5875    37.0245 O.2   1 AXI  -0.5700 
  2 C80      4.9622    17.4512    37.2070 C.2   1 AXI   0.5438 
  3 N82      5.9012    16.3825    37.3645 N.am  1 AXI  -0.7301 
  4 H82      5.5686    15.4378    37.4952 H     1 AXI   0.3700 
  5 C88      7.3314    16.6477    37.3377 C.3   1 AXI   0.0601 
  6 H881     7.5004    17.7141    37.1886 H     1 AXI   0.0800 
  7 H882     7.7892    16.0896    36.5209 H     1 AXI   0.0800 
  8 H883     7.7762    16.3380    38.2834 H     1 AXI   0.0800 
  9 C23      3.4888    17.1983    37.2348 C.ar  1 AXI   0.0862 
 10 C22      2.9291    16.2280    36.4043 C.ar  1 AXI  -0.1500 
 11 H22      3.5623    15.6497    35.7477 H     1 AXI   0.1500 
 12 C21      1.5581    16.0040    36.4202 C.ar  1 AXI  -0.1500 
 13 H21      1.1249    15.2529    35.7763 H     1 AXI   0.1500 
 14 C20      0.7402    16.7533    37.2720 C.ar  1 AXI  -0.1500 
 15 H20     -0.3256    16.5793    37.2894 H     1 AXI   0.1500 
 16 C18      2.6633    17.9529    38.0865 C.ar  1 AXI   0.1015 
 17 C19      1.3040    17.7281    38.1012 C.ar  1 AXI  -0.1500 
 18 H19      0.6707    18.3077    38.7564 H     1 AXI   0.1500 
 19 S24      3.3498    19.1987    39.1827 S.3   1 AXI  -0.2030 
 20 C07      2.3027    19.1218    40.6380 C.ar  1 AXI   0.1015 
 21 C08      2.0294    17.8764    41.2402 C.ar  1 AXI  -0.1500 
 22 H08      2.4597    16.9747    40.8299 H     1 AXI   0.1500 
 23 C09      1.1987    17.8032    42.3732 C.ar  1 AXI  -0.1500 
 24 H09      0.9835    16.8496    42.8323 H     1 AXI   0.1500 
 25 C12      1.7658    20.2908    41.1526 C.ar  1 AXI  -0.1500 
 26 H12      1.9790    21.2429    40.6895 H     1 AXI   0.1500 
 27 C11      0.9216    20.2160    42.3111 C.ar  1 AXI  -0.1516 
 28 N15      0.2735    21.2057    43.0273 N.pl3 1 AXI   0.2996 
 29 H15      0.2932    22.1951    42.8251 H     1 AXI   0.2700 
 30 N14     -0.4018    20.6059    44.0624 N.2   1 AXI  -0.7068 
 31 C13     -0.2098    19.2708    44.0305 C.2   1 AXI   0.2428 
 32 C10      0.6450    19.0010    42.9075 C.ar  1 AXI   0.0000 
 33 C16     -0.8063    18.2974    45.0124 C.2   1 AXI  -0.1040 
 34 H16     -1.4562    18.6791    45.7860 H     1 AXI   0.1500 
 35 C17     -0.5624    16.9481    44.9699 C.2   1 AXI  -0.1784 
 36 H17      0.1423    16.5486    44.2556 H     1 AXI   0.1500 
 37 C02     -1.2781    16.0242    45.9200 C.ar  1 AXI   0.3384 
 38 N03     -1.8404    16.5221    47.0389 N.ar  1 AXI  -0.6200 
 39 C04     -2.4884    15.7183    47.9147 C.ar  1 AXI   0.1600 
 40 H04     -2.9362    16.1365    48.8041 H     1 AXI   0.1500 
 41 C05     -2.5762    14.3508    47.6658 C.ar  1 AXI  -0.1500 
 42 H05     -3.0906    13.7063    48.3632 H     1 AXI   0.1500 
 43 C06     -2.0012    13.8164    46.5188 C.ar  1 AXI  -0.1500 
 44 H06     -2.0654    12.7577    46.3150 H     1 AXI   0.1500 
 45 C01     -1.3401    14.6689    45.6355 C.ar  1 AXI  -0.1500 
 46 H01     -0.8813    14.2776    44.7395 H     1 AXI   0.1500 
@<TRIPOS>BOND
  1   1   2  2   
  2   2   3  am  
  3   2   9  1   
  4   3   4  1   
  5   3   5  1   
  6   5   6  1   
  7   5   7  1   
  8   5   8  1   
  9   9  10  ar  
 10   9  16  ar  
 11  10  11  1   
 12  10  12  ar  
 13  12  13  1   
 14  12  14  ar  
 15  14  15  1   
 16  14  17  ar  
 17  16  17  ar  
 18  16  19  1   
 19  17  18  1   
 20  19  20  1   
 21  20  21  ar  
 22  20  25  ar  
 23  21  22  1   
 24  21  23  ar  
 25  23  24  1   
 26  23  32  ar  
 27  25  26  1   
 28  25  27  ar  
 29  27  28  1   
 30  27  32  ar  
 31  28  29  1   
 32  28  30  1   
 33  30  31  2   
 34  31  32  1   
 35  31  33  1   
 36  33  34  1   
 37  33  35  2   
 38  35  36  1   
 39  35  37  1   
 40  37  38  ar  
 41  37  45  ar  
 42  38  39  ar  
 43  39  40  1   
 44  39  41  ar  
 45  41  42  1   
 46  41  43  ar  
 47  43  44  1   
 48  43  45  ar  
 49  45  46  1   
@<TRIPOS>SUBSTRUCTURE
  1 AXI  23 GROUP 4 B **** 0

# MOE 2012.10 (io_trps.svl 2012.10)
