@<TRIPOS>MOLECULE
4wa9.B
393 262 131 0 0 
SMALL
USER_CHARGES


@<TRIPOS>ATOM
  1 O      -15.5859     0.1873    25.0301 O.3     1 HOH   0.0000 
  2 H1     -14.6259     0.1873    25.0301 H       1 HOH   0.0000 
  3 H2     -15.8761     0.8343    25.6771 H       1 HOH   0.0000 
  4 O      -14.8886    -1.9051    27.2925 O.3     2 HOH   0.0000 
  5 H1     -13.9286    -1.9051    27.2925 H       2 HOH   0.0000 
  6 H2     -15.1788    -1.2580    27.9395 H       2 HOH   0.0000 
  7 O      -14.6580     2.7526     9.6916 O.3     3 HOH   0.0000 
  8 H1     -13.6980     2.7526     9.6916 H       3 HOH   0.0000 
  9 H2     -14.9483     3.3997    10.3387 H       3 HOH   0.0000 
 10 O       -3.7182    30.6482    16.7693 O.3     4 HOH   0.0000 
 11 H1      -2.7582    30.6482    16.7693 H       4 HOH   0.0000 
 12 H2      -4.0085    31.2952    17.4164 H       4 HOH   0.0000 
 13 O       -7.3253    -7.6293    15.5456 O.3     5 HOH   0.0000 
 14 H1      -6.3653    -7.6293    15.5456 H       5 HOH   0.0000 
 15 H2      -7.6156    -6.9823    16.1927 H       5 HOH   0.0000 
 16 O       -8.5469    -7.5467    12.4513 O.3     6 HOH   0.0000 
 17 H1      -7.5869    -7.5467    12.4513 H       6 HOH   0.0000 
 18 H2      -8.8371    -6.8996    13.0984 H       6 HOH   0.0000 
 19 O      -17.9729    -0.0029    13.4366 O.3     7 HOH   0.0000 
 20 H1     -17.0129    -0.0029    13.4366 H       7 HOH   0.0000 
 21 H2     -18.2632     0.6442    14.0836 H       7 HOH   0.0000 
 22 O        3.1984    22.7593    13.0529 O.3     8 HOH   0.0000 
 23 H1       4.1584    22.7593    13.0529 H       8 HOH   0.0000 
 24 H2       2.9081    23.4064    13.6999 H       8 HOH   0.0000 
 25 O      -13.2521     6.2075    12.9253 O.3     9 HOH   0.0000 
 26 H1     -12.2921     6.2075    12.9253 H       9 HOH   0.0000 
 27 H2     -13.5423     6.8545    13.5723 H       9 HOH   0.0000 
 28 O      -17.0688     6.8492    13.5000 O.3    10 HOH   0.0000 
 29 H1     -16.1088     6.8492    13.5000 H      10 HOH   0.0000 
 30 H2     -17.3591     7.4962    14.1471 H      10 HOH   0.0000 
 31 O      -20.4494     3.9356    20.2063 O.3    11 HOH   0.0000 
 32 H1     -19.4894     3.9356    20.2063 H      11 HOH   0.0000 
 33 H2     -20.7397     4.5826    20.8533 H      11 HOH   0.0000 
 34 O      -14.4305    12.3461    10.8222 O.3    12 HOH   0.0000 
 35 H1     -13.4705    12.3461    10.8222 H      12 HOH   0.0000 
 36 H2     -14.7208    12.9931    11.4693 H      12 HOH   0.0000 
 37 O       19.2761    13.1682    32.9681 O.3    13 HOH   0.0000 
 38 H1      20.2361    13.1682    32.9681 H      13 HOH   0.0000 
 39 H2      18.9858    13.8152    33.6152 H      13 HOH   0.0000 
 40 O      -24.1628     4.5901    23.6340 O.3    14 HOH   0.0000 
 41 H1     -23.2028     4.5901    23.6340 H      14 HOH   0.0000 
 42 H2     -24.4531     5.2371    24.2810 H      14 HOH   0.0000 
 43 O      -11.8217    -8.2386    29.2513 O.3    15 HOH   0.0000 
 44 H1     -10.8617    -8.2386    29.2513 H      15 HOH   0.0000 
 45 H2     -12.1119    -7.5916    29.8983 H      15 HOH   0.0000 
 46 O      -17.8318     1.4821    26.2717 O.3    16 HOH   0.0000 
 47 H1     -16.8718     1.4821    26.2717 H      16 HOH   0.0000 
 48 H2     -18.1220     2.1292    26.9187 H      16 HOH   0.0000 
 49 O        2.4548    29.9543    11.2995 O.3    17 HOH   0.0000 
 50 H1       3.4148    29.9543    11.2995 H      17 HOH   0.0000 
 51 H2       2.1646    30.6014    11.9465 H      17 HOH   0.0000 
 52 O       21.0834    17.0461    25.6637 O.3    18 HOH   0.0000 
 53 H1      22.0434    17.0461    25.6637 H      18 HOH   0.0000 
 54 H2      20.7931    17.6931    26.3108 H      18 HOH   0.0000 
 55 O       18.6340    15.7896    24.2918 O.3    19 HOH   0.0000 
 56 H1      19.5940    15.7896    24.2918 H      19 HOH   0.0000 
 57 H2      18.3437    16.4366    24.9388 H      19 HOH   0.0000 
 58 O       -4.6112    29.3740    38.4401 O.3    20 HOH   0.0000 
 59 H1      -3.6512    29.3740    38.4401 H      20 HOH   0.0000 
 60 H2      -4.9014    30.0210    39.0872 H      20 HOH   0.0000 
 61 O       -2.2450    29.8631    35.6090 O.3    21 HOH   0.0000 
 62 H1      -1.2850    29.8631    35.6090 H      21 HOH   0.0000 
 63 H2      -2.5353    30.5101    36.2560 H      21 HOH   0.0000 
 64 O      -14.3834    21.6528    49.5157 O.3    22 HOH   0.0000 
 65 H1     -13.4234    21.6528    49.5157 H      22 HOH   0.0000 
 66 H2     -14.6736    22.2998    50.1627 H      22 HOH   0.0000 
 67 O        2.0191    32.8726    35.1639 O.3    23 HOH   0.0000 
 68 H1       2.9791    32.8726    35.1639 H      23 HOH   0.0000 
 69 H2       1.7289    33.5196    35.8110 H      23 HOH   0.0000 
 70 O       -9.0493     7.1604    22.7022 O.3    24 HOH   0.0000 
 71 H1      -8.0893     7.1604    22.7022 H      24 HOH   0.0000 
 72 H2      -9.3396     7.8074    23.3492 H      24 HOH   0.0000 
 73 O       -4.6918    -1.6601    16.7007 O.3    25 HOH   0.0000 
 74 H1      -3.7318    -1.6601    16.7007 H      25 HOH   0.0000 
 75 H2      -4.9821    -1.0131    17.3478 H      25 HOH   0.0000 
 76 O      -14.3366     6.2187    22.2583 O.3    26 HOH   0.0000 
 77 H1     -13.3766     6.2187    22.2583 H      26 HOH   0.0000 
 78 H2     -14.6269     6.8657    22.9054 H      26 HOH   0.0000 
 79 O       -3.8791    -0.3704    19.4261 O.3    27 HOH   0.0000 
 80 H1      -2.9191    -0.3704    19.4261 H      27 HOH   0.0000 
 81 H2      -4.1693     0.2766    20.0731 H      27 HOH   0.0000 
 82 O      -15.2050    26.3748    42.8712 O.3    28 HOH   0.0000 
 83 H1     -14.2450    26.3748    42.8712 H      28 HOH   0.0000 
 84 H2     -15.4953    27.0219    43.5182 H      28 HOH   0.0000 
 85 O       -3.2805    23.0524    16.6381 O.3    29 HOH   0.0000 
 86 H1      -2.3205    23.0524    16.6381 H      29 HOH   0.0000 
 87 H2      -3.5708    23.6995    17.2852 H      29 HOH   0.0000 
 88 O       -4.3953    16.3811    14.7501 O.3    30 HOH   0.0000 
 89 H1      -3.4353    16.3811    14.7501 H      30 HOH   0.0000 
 90 H2      -4.6856    17.0282    15.3971 H      30 HOH   0.0000 
 91 O      -13.2255    20.0473    46.2208 O.3    31 HOH   0.0000 
 92 H1     -12.2655    20.0473    46.2208 H      31 HOH   0.0000 
 93 H2     -13.5158    20.6943    46.8679 H      31 HOH   0.0000 
 94 O      -22.6330    20.0257    45.6036 O.3    32 HOH   0.0000 
 95 H1     -21.6730    20.0257    45.6036 H      32 HOH   0.0000 
 96 H2     -22.9232    20.6727    46.2507 H      32 HOH   0.0000 
 97 O       -6.3392     9.7857    33.6684 O.3    33 HOH   0.0000 
 98 H1      -5.3792     9.7857    33.6684 H      33 HOH   0.0000 
 99 H2      -6.6294    10.4328    34.3154 H      33 HOH   0.0000 
100 O      -16.4203    30.1061    24.2695 O.3    34 HOH   0.0000 
101 H1     -15.4603    30.1061    24.2695 H      34 HOH   0.0000 
102 H2     -16.7106    30.7531    24.9165 H      34 HOH   0.0000 
103 O        7.0846    25.1922    24.2818 O.3    35 HOH   0.0000 
104 H1       8.0446    25.1922    24.2818 H      35 HOH   0.0000 
105 H2       6.7944    25.8393    24.9289 H      35 HOH   0.0000 
106 O      -21.2381    25.7091    21.0719 O.3    36 HOH   0.0000 
107 H1     -20.2781    25.7091    21.0719 H      36 HOH   0.0000 
108 H2     -21.5284    26.3561    21.7190 H      36 HOH   0.0000 
109 O       -6.9704     6.2031    21.5382 O.3    37 HOH   0.0000 
110 H1      -6.0104     6.2031    21.5382 H      37 HOH   0.0000 
111 H2      -7.2607     6.8502    22.1853 H      37 HOH   0.0000 
112 O       -8.5703    29.9069    40.1917 O.3    38 HOH   0.0000 
113 H1      -7.6103    29.9069    40.1917 H      38 HOH   0.0000 
114 H2      -8.8606    30.5539    40.8388 H      38 HOH   0.0000 
115 O       -2.0520    35.2390    29.1421 O.3    39 HOH   0.0000 
116 H1      -1.0920    35.2390    29.1421 H      39 HOH   0.0000 
117 H2      -2.3423    35.8860    29.7891 H      39 HOH   0.0000 
118 O       12.3970    32.1532    31.9908 O.3    40 HOH   0.0000 
119 H1      13.3570    32.1532    31.9908 H      40 HOH   0.0000 
120 H2      12.1067    32.8002    32.6378 H      40 HOH   0.0000 
121 O      -15.5576     9.7212    12.7321 O.3    41 HOH   0.0000 
122 H1     -14.5976     9.7212    12.7321 H      41 HOH   0.0000 
123 H2     -15.8479    10.3683    13.3792 H      41 HOH   0.0000 
124 O       -6.9079    29.1754    42.9376 O.3    42 HOH   0.0000 
125 H1      -5.9479    29.1754    42.9376 H      42 HOH   0.0000 
126 H2      -7.1981    29.8224    43.5847 H      42 HOH   0.0000 
127 O       -3.2175    26.1273    19.9249 O.3    43 HOH   0.0000 
128 H1      -2.2575    26.1273    19.9249 H      43 HOH   0.0000 
129 H2      -3.5078    26.7743    20.5720 H      43 HOH   0.0000 
130 O       -8.2570    25.3145    46.4506 O.3    44 HOH   0.0000 
131 H1      -7.2970    25.3145    46.4506 H      44 HOH   0.0000 
132 H2      -8.5473    25.9615    47.0977 H      44 HOH   0.0000 
133 O       -5.6999    23.5924    47.2262 O.3    45 HOH   0.0000 
134 H1      -4.7399    23.5924    47.2262 H      45 HOH   0.0000 
135 H2      -5.9901    24.2394    47.8732 H      45 HOH   0.0000 
136 O       -1.7163    27.1377    15.8371 O.3    46 HOH   0.0000 
137 H1      -0.7563    27.1377    15.8371 H      46 HOH   0.0000 
138 H2      -2.0066    27.7847    16.4841 H      46 HOH   0.0000 
139 O        1.8141    29.2912    35.8262 O.3    47 HOH   0.0000 
140 H1       2.7741    29.2912    35.8262 H      47 HOH   0.0000 
141 H2       1.5238    29.9383    36.4732 H      47 HOH   0.0000 
142 O      -10.9269    30.7233    28.4800 O.3    48 HOH   0.0000 
143 H1      -9.9669    30.7233    28.4800 H      48 HOH   0.0000 
144 H2     -11.2171    31.3704    29.1270 H      48 HOH   0.0000 
145 O       -0.1112    26.7047    47.4610 O.3    49 HOH   0.0000 
146 H1       0.8488    26.7047    47.4610 H      49 HOH   0.0000 
147 H2      -0.4015    27.3518    48.1081 H      49 HOH   0.0000 
148 O       -6.5719    26.0052    44.7522 O.3    50 HOH   0.0000 
149 H1      -5.6119    26.0052    44.7522 H      50 HOH   0.0000 
150 H2      -6.8621    26.6522    45.3992 H      50 HOH   0.0000 
151 O        1.6787    28.5856    15.2362 O.3    51 HOH   0.0000 
152 H1       2.6387    28.5856    15.2362 H      51 HOH   0.0000 
153 H2       1.3884    29.2326    15.8832 H      51 HOH   0.0000 
154 O      -15.0558    16.8860    48.4497 O.3    52 HOH   0.0000 
155 H1     -14.0958    16.8860    48.4497 H      52 HOH   0.0000 
156 H2     -15.3461    17.5331    49.0967 H      52 HOH   0.0000 
157 O       -3.2735    14.7133    25.2219 O.3    53 HOH   0.0000 
158 H1      -2.3135    14.7133    25.2219 H      53 HOH   0.0000 
159 H2      -3.5638    15.3603    25.8690 H      53 HOH   0.0000 
160 O        8.1206    22.8464    28.1062 O.3    54 HOH   0.0000 
161 H1       9.0806    22.8464    28.1062 H      54 HOH   0.0000 
162 H2       7.8303    23.4934    28.7532 H      54 HOH   0.0000 
163 O      -16.1293    29.0781    32.6924 O.3    55 HOH   0.0000 
164 H1     -15.1693    29.0781    32.6924 H      55 HOH   0.0000 
165 H2     -16.4195    29.7251    33.3394 H      55 HOH   0.0000 
166 O      -14.4629    28.0440    16.8804 O.3    56 HOH   0.0000 
167 H1     -13.5029    28.0440    16.8804 H      56 HOH   0.0000 
168 H2     -14.7532    28.6911    17.5275 H      56 HOH   0.0000 
169 O       -2.0571    15.9450    14.9784 O.3    57 HOH   0.0000 
170 H1      -1.0971    15.9450    14.9784 H      57 HOH   0.0000 
171 H2      -2.3473    16.5921    15.6254 H      57 HOH   0.0000 
172 O        5.7957    22.4825    29.7370 O.3    58 HOH   0.0000 
173 H1       6.7557    22.4825    29.7370 H      58 HOH   0.0000 
174 H2       5.5054    23.1296    30.3840 H      58 HOH   0.0000 
175 O        3.7255    30.8338    19.0400 O.3    59 HOH   0.0000 
176 H1       4.6855    30.8338    19.0400 H      59 HOH   0.0000 
177 H2       3.4353    31.4808    19.6871 H      59 HOH   0.0000 
178 O        5.4626    23.9436    31.6216 O.3    60 HOH   0.0000 
179 H1       6.4226    23.9436    31.6216 H      60 HOH   0.0000 
180 H2       5.1723    24.5907    32.2687 H      60 HOH   0.0000 
181 O      -11.4366    22.8395    11.6962 O.3    61 HOH   0.0000 
182 H1     -10.4766    22.8395    11.6962 H      61 HOH   0.0000 
183 H2     -11.7268    23.4865    12.3432 H      61 HOH   0.0000 
184 O      -21.1883    13.2666    32.1378 O.3    62 HOH   0.0000 
185 H1     -20.2283    13.2666    32.1378 H      62 HOH   0.0000 
186 H2     -21.4786    13.9137    32.7849 H      62 HOH   0.0000 
187 O       -7.3906    10.2715    12.8607 O.3    63 HOH   0.0000 
188 H1      -6.4306    10.2715    12.8607 H      63 HOH   0.0000 
189 H2      -7.6809    10.9185    13.5078 H      63 HOH   0.0000 
190 O       -9.7206    23.7939    17.4464 O.3    64 HOH   0.0000 
191 H1      -8.7606    23.7939    17.4464 H      64 HOH   0.0000 
192 H2     -10.0109    24.4409    18.0934 H      64 HOH   0.0000 
193 O        0.7741    22.3269    11.0678 O.3    65 HOH   0.0000 
194 H1       1.7341    22.3269    11.0678 H      65 HOH   0.0000 
195 H2       0.4838    22.9739    11.7148 H      65 HOH   0.0000 
196 O       -5.2259     8.9064    11.4332 O.3    66 HOH   0.0000 
197 H1      -4.2659     8.9064    11.4332 H      66 HOH   0.0000 
198 H2      -5.5162     9.5535    12.0802 H      66 HOH   0.0000 
199 O      -21.5338    15.6291    32.8018 O.3    67 HOH   0.0000 
200 H1     -20.5738    15.6291    32.8018 H      67 HOH   0.0000 
201 H2     -21.8240    16.2761    33.4489 H      67 HOH   0.0000 
202 O      -23.4905    16.0933    34.5494 O.3    68 HOH   0.0000 
203 H1     -22.5305    16.0933    34.5494 H      68 HOH   0.0000 
204 H2     -23.7808    16.7404    35.1964 H      68 HOH   0.0000 
205 O      -25.8349    16.8341    34.3060 O.3    69 HOH   0.0000 
206 H1     -24.8749    16.8341    34.3060 H      69 HOH   0.0000 
207 H2     -26.1252    17.4812    34.9530 H      69 HOH   0.0000 
208 O        7.6220    28.8901    24.8329 O.3    70 HOH   0.0000 
209 H1       8.5820    28.8901    24.8329 H      70 HOH   0.0000 
210 H2       7.3317    29.5371    25.4800 H      70 HOH   0.0000 
211 O      -12.5545    24.0491    13.8920 O.3    71 HOH   0.0000 
212 H1     -11.5945    24.0491    13.8920 H      71 HOH   0.0000 
213 H2     -12.8448    24.6962    14.5390 H      71 HOH   0.0000 
214 O      -22.0175    14.2123    18.0520 O.3    72 HOH   0.0000 
215 H1     -21.0575    14.2123    18.0520 H      72 HOH   0.0000 
216 H2     -22.3078    14.8593    18.6990 H      72 HOH   0.0000 
217 O      -28.1112    14.8584    34.7476 O.3    73 HOH   0.0000 
218 H1     -27.1512    14.8584    34.7476 H      73 HOH   0.0000 
219 H2     -28.4015    15.5055    35.3946 H      73 HOH   0.0000 
220 O       -9.3907     6.6626    33.7928 O.3    74 HOH   0.0000 
221 H1      -8.4307     6.6626    33.7928 H      74 HOH   0.0000 
222 H2      -9.6809     7.3096    34.4398 H      74 HOH   0.0000 
223 O      -16.3494    13.8618    48.2863 O.3    75 HOH   0.0000 
224 H1     -15.3894    13.8618    48.2863 H      75 HOH   0.0000 
225 H2     -16.6397    14.5088    48.9333 H      75 HOH   0.0000 
226 O      -21.8143     6.5270    34.6606 O.3    76 HOH   0.0000 
227 H1     -20.8543     6.5270    34.6606 H      76 HOH   0.0000 
228 H2     -22.1046     7.1740    35.3077 H      76 HOH   0.0000 
229 O       -5.0806     6.9607    34.2685 O.3    77 HOH   0.0000 
230 H1      -4.1206     6.9607    34.2685 H      77 HOH   0.0000 
231 H2      -5.3709     7.6077    34.9155 H      77 HOH   0.0000 
232 O      -19.2102    16.4430    32.6625 O.3    78 HOH   0.0000 
233 H1     -18.2502    16.4430    32.6625 H      78 HOH   0.0000 
234 H2     -19.5005    17.0901    33.3095 H      78 HOH   0.0000 
235 O      -18.8952    14.3502    32.1247 O.3    79 HOH   0.0000 
236 H1     -17.9352    14.3502    32.1247 H      79 HOH   0.0000 
237 H2     -19.1854    14.9972    32.7717 H      79 HOH   0.0000 
238 O        5.2537    12.4927    42.8968 O.3    80 HOH   0.0000 
239 H1       6.2137    12.4927    42.8968 H      80 HOH   0.0000 
240 H2       4.9634    13.1397    43.5438 H      80 HOH   0.0000 
241 O        6.3889    19.7338    29.7810 O.3    81 HOH   0.0000 
242 H1       7.3489    19.7338    29.7810 H      81 HOH   0.0000 
243 H2       6.0987    20.3809    30.4281 H      81 HOH   0.0000 
244 O        3.9886    21.0215    36.0263 O.3    82 HOH  -0.8340 
245 H1       4.6427    21.0965    35.3315 H      82 HOH   0.4170 
246 H2       4.2293    20.2238    36.4974 H      82 HOH   0.4170 
247 O       -3.7292    25.5581    17.2309 O.3    83 HOH   0.0000 
248 H1      -2.7692    25.5581    17.2309 H      83 HOH   0.0000 
249 H2      -4.0195    26.2052    17.8780 H      83 HOH   0.0000 
250 O        5.7670    21.1786    33.7384 O.3    84 HOH  -0.8340 
251 H1       5.5901    21.9023    33.1374 H      84 HOH   0.4170 
252 H2       6.7183    21.0748    33.7156 H      84 HOH   0.4170 
253 O      -15.4514    27.8629    34.3320 O.3    85 HOH   0.0000 
254 H1     -14.4914    27.8629    34.3320 H      85 HOH   0.0000 
255 H2     -15.7416    28.5100    34.9791 H      85 HOH   0.0000 
256 O       20.8223    22.3343    38.5668 O.3    86 HOH   0.0000 
257 H1      21.7823    22.3343    38.5668 H      86 HOH   0.0000 
258 H2      20.5320    22.9814    39.2139 H      86 HOH   0.0000 
259 O      -17.4649     7.5038    43.0727 O.3    87 HOH   0.0000 
260 H1     -16.5049     7.5038    43.0727 H      87 HOH   0.0000 
261 H2     -17.7552     8.1508    43.7198 H      87 HOH   0.0000 
262 O       -7.7191    24.1899    15.5251 O.3    88 HOH   0.0000 
263 H1      -6.7591    24.1899    15.5251 H      88 HOH   0.0000 
264 H2      -8.0094    24.8370    16.1722 H      88 HOH   0.0000 
265 O       -5.5173    29.2310    17.4255 O.3    89 HOH   0.0000 
266 H1      -4.5573    29.2310    17.4255 H      89 HOH   0.0000 
267 H2      -5.8076    29.8781    18.0725 H      89 HOH   0.0000 
268 O       -4.3431    13.3147    21.8345 O.3    90 HOH   0.0000 
269 H1      -3.3831    13.3147    21.8345 H      90 HOH   0.0000 
270 H2      -4.6333    13.9618    22.4815 H      90 HOH   0.0000 
271 O       -7.4525    23.7540    51.8968 O.3    91 HOH   0.0000 
272 H1      -6.4925    23.7540    51.8968 H      91 HOH   0.0000 
273 H2      -7.7428    24.4010    52.5438 H      91 HOH   0.0000 
274 O       -6.6804    11.2406    10.3785 O.3    92 HOH   0.0000 
275 H1      -5.7204    11.2406    10.3785 H      92 HOH   0.0000 
276 H2      -6.9707    11.8877    11.0255 H      92 HOH   0.0000 
277 O       -3.9404    17.4054    51.4565 O.3    93 HOH  -0.8340 
278 H1      -4.4901    17.3818    50.6733 H      93 HOH   0.4170 
279 H2      -4.0495    18.2923    51.7997 H      93 HOH   0.4170 
280 O      -11.8692    20.5302    52.1114 O.3    94 HOH   0.0000 
281 H1     -10.9092    20.5302    52.1114 H      94 HOH   0.0000 
282 H2     -12.1595    21.1773    52.7584 H      94 HOH   0.0000 
283 O       -9.8700    29.2005    21.5704 O.3    95 HOH   0.0000 
284 H1      -8.9100    29.2005    21.5704 H      95 HOH   0.0000 
285 H2     -10.1603    29.8476    22.2174 H      95 HOH   0.0000 
286 O      -20.3942    14.1929    15.7606 O.3    96 HOH   0.0000 
287 H1     -19.4342    14.1929    15.7606 H      96 HOH   0.0000 
288 H2     -20.6844    14.8400    16.4077 H      96 HOH   0.0000 
289 O       -0.4714    38.3835    45.3962 O.3    97 HOH   0.0000 
290 H1       0.4886    38.3835    45.3962 H      97 HOH   0.0000 
291 H2      -0.7617    39.0306    46.0432 H      97 HOH   0.0000 
292 O      -26.7511    24.2269    41.3601 O.3    98 HOH   0.0000 
293 H1     -25.7911    24.2269    41.3601 H      98 HOH   0.0000 
294 H2     -27.0414    24.8740    42.0071 H      98 HOH   0.0000 
295 O       -6.1735    26.5417    16.4621 O.3    99 HOH   0.0000 
296 H1      -5.2135    26.5417    16.4621 H      99 HOH   0.0000 
297 H2      -6.4638    27.1888    17.1092 H      99 HOH   0.0000 
298 O      -22.4730    11.6471    33.7314 O.3   100 HOH   0.0000 
299 H1     -21.5130    11.6471    33.7314 H     100 HOH   0.0000 
300 H2     -22.7633    12.2941    34.3785 H     100 HOH   0.0000 
301 O       -8.9558    22.0691    12.0674 O.3   101 HOH   0.0000 
302 H1      -7.9958    22.0691    12.0674 H     101 HOH   0.0000 
303 H2      -9.2461    22.7162    12.7145 H     101 HOH   0.0000 
304 O      -20.7935     8.0962    47.1355 O.3   102 HOH   0.0000 
305 H1     -19.8335     8.0962    47.1355 H     102 HOH   0.0000 
306 H2     -21.0837     8.7433    47.7825 H     102 HOH   0.0000 
307 O       -0.6947    26.1375    52.7349 O.3   103 HOH   0.0000 
308 H1       0.2653    26.1375    52.7349 H     103 HOH   0.0000 
309 H2      -0.9850    26.7846    53.3820 H     103 HOH   0.0000 
310 O      -13.8156    28.4922    44.1644 O.3   104 HOH   0.0000 
311 H1     -12.8556    28.4922    44.1644 H     104 HOH   0.0000 
312 H2     -14.1059    29.1392    44.8114 H     104 HOH   0.0000 
313 O      -11.8421    27.6361    45.6228 O.3   105 HOH   0.0000 
314 H1     -10.8821    27.6361    45.6228 H     105 HOH   0.0000 
315 H2     -12.1323    28.2832    46.2698 H     105 HOH   0.0000 
316 O       10.4181    21.0908    28.8201 O.3   106 HOH   0.0000 
317 H1      11.3781    21.0908    28.8201 H     106 HOH   0.0000 
318 H2      10.1278    21.7379    29.4672 H     106 HOH   0.0000 
319 O        2.1428    21.8719    36.8682 O.3   107 HOH  -0.8340 
320 H1       2.3992    22.5387    37.5053 H     107 HOH   0.4170 
321 H2       2.9693    21.4824    36.5827 H     107 HOH   0.4170 
322 O       -1.3962    23.4357    54.4574 O.3   108 HOH   0.0000 
323 H1      -0.4362    23.4357    54.4574 H     108 HOH   0.0000 
324 H2      -1.6864    24.0827    55.1045 H     108 HOH   0.0000 
325 O        9.1318    33.0469    29.5638 O.3   109 HOH   0.0000 
326 H1      10.0918    33.0469    29.5638 H     109 HOH   0.0000 
327 H2       8.8415    33.6940    30.2108 H     109 HOH   0.0000 
328 O      -25.7716    12.8134    40.2690 O.3   110 HOH   0.0000 
329 H1     -24.8116    12.8134    40.2690 H     110 HOH   0.0000 
330 H2     -26.0619    13.4604    40.9161 H     110 HOH   0.0000 
331 O      -26.8272    19.1274    35.9473 O.3   111 HOH   0.0000 
332 H1     -25.8672    19.1274    35.9473 H     111 HOH   0.0000 
333 H2     -27.1175    19.7744    36.5943 H     111 HOH   0.0000 
334 O      -22.5157     6.8366    40.4820 O.3   112 HOH   0.0000 
335 H1     -21.5557     6.8366    40.4820 H     112 HOH   0.0000 
336 H2     -22.8060     7.4837    41.1290 H     112 HOH   0.0000 
337 O      -17.3355    28.0649    35.3727 O.3   113 HOH   0.0000 
338 H1     -16.3755    28.0649    35.3727 H     113 HOH   0.0000 
339 H2     -17.6258    28.7119    36.0198 H     113 HOH   0.0000 
340 O       15.1689    24.3599    50.5627 O.3   114 HOH   0.0000 
341 H1      16.1289    24.3599    50.5627 H     114 HOH   0.0000 
342 H2      14.8786    25.0070    51.2097 H     114 HOH   0.0000 
343 O       11.2282    39.3347    36.0047 O.3   115 HOH   0.0000 
344 H1      12.1882    39.3347    36.0047 H     115 HOH   0.0000 
345 H2      10.9379    39.9817    36.6518 H     115 HOH   0.0000 
346 O       -5.2022    33.2744    36.7404 O.3   116 HOH   0.0000 
347 H1      -4.2422    33.2744    36.7404 H     116 HOH   0.0000 
348 H2      -5.4925    33.9215    37.3874 H     116 HOH   0.0000 
349 O       -4.4518    36.6602    27.7587 O.3   117 HOH   0.0000 
350 H1      -3.4918    36.6602    27.7587 H     117 HOH   0.0000 
351 H2      -4.7420    37.3072    28.4058 H     117 HOH   0.0000 
352 O       -0.3740    39.2940    47.2666 O.3   118 HOH   0.0000 
353 H1       0.5860    39.2940    47.2666 H     118 HOH   0.0000 
354 H2      -0.6642    39.9411    47.9137 H     118 HOH   0.0000 
355 O       -1.2234    38.7879    43.5040 O.3   119 HOH   0.0000 
356 H1      -0.2634    38.7879    43.5040 H     119 HOH   0.0000 
357 H2      -1.5137    39.4349    44.1510 H     119 HOH   0.0000 
358 O      -19.7197    16.2676    15.0241 O.3   120 HOH   0.0000 
359 H1     -18.7597    16.2676    15.0241 H     120 HOH   0.0000 
360 H2     -20.0100    16.9147    15.6711 H     120 HOH   0.0000 
361 O      -26.7872    12.4842    35.5133 O.3   121 HOH   0.0000 
362 H1     -25.8272    12.4842    35.5133 H     121 HOH   0.0000 
363 H2     -27.0774    13.1313    36.1603 H     121 HOH   0.0000 
364 O      -14.9084     4.5370    39.9920 O.3   122 HOH   0.0000 
365 H1     -13.9484     4.5370    39.9920 H     122 HOH   0.0000 
366 H2     -15.1987     5.1840    40.6390 H     122 HOH   0.0000 
367 O       -3.6441    12.5262    26.9077 O.3   123 HOH   0.0000 
368 H1      -2.6841    12.5262    26.9077 H     123 HOH   0.0000 
369 H2      -3.9343    13.1732    27.5547 H     123 HOH   0.0000 
370 O        2.1184    35.7965    34.9132 O.3   124 HOH   0.0000 
371 H1       3.0784    35.7965    34.9132 H     124 HOH   0.0000 
372 H2       1.8281    36.4435    35.5602 H     124 HOH   0.0000 
373 O      -20.3900     4.0370    34.4370 O.3   125 HOH   0.0000 
374 H1     -19.4300     4.0370    34.4370 H     125 HOH   0.0000 
375 H2     -20.6802     4.6840    35.0840 H     125 HOH   0.0000 
376 O      -26.9917    17.8794    39.9272 O.3   126 HOH   0.0000 
377 H1     -26.0317    17.8794    39.9272 H     126 HOH   0.0000 
378 H2     -27.2819    18.5265    40.5742 H     126 HOH   0.0000 
379 O       -6.3013    35.3010    34.7633 O.3   127 HOH   0.0000 
380 H1      -5.3413    35.3010    34.7633 H     127 HOH   0.0000 
381 H2      -6.5916    35.9480    35.4104 H     127 HOH   0.0000 
382 O       -6.5582    34.1632    31.5372 O.3   128 HOH   0.0000 
383 H1      -5.5982    34.1632    31.5372 H     128 HOH   0.0000 
384 H2      -6.8485    34.8103    32.1842 H     128 HOH   0.0000 
385 O      -19.1948    14.9797    51.4316 O.3   129 HOH   0.0000 
386 H1     -18.2348    14.9797    51.4316 H     129 HOH   0.0000 
387 H2     -19.4851    15.6268    52.0786 H     129 HOH   0.0000 
388 O      -28.5796     6.9677    31.7481 O.3   130 HOH   0.0000 
389 H1     -27.6196     6.9677    31.7481 H     130 HOH   0.0000 
390 H2     -28.8699     7.6148    32.3952 H     130 HOH   0.0000 
391 O      -26.2402     6.6898    23.5544 O.3   131 HOH   0.0000 
392 H1     -25.2802     6.6898    23.5544 H     131 HOH   0.0000 
393 H2     -26.5305     7.3368    24.2014 H     131 HOH   0.0000 
@<TRIPOS>BOND
  1   1   2  1   
  2   1   3  1   
  3   4   5  1   
  4   4   6  1   
  5   7   8  1   
  6   7   9  1   
  7  10  11  1   
  8  10  12  1   
  9  13  14  1   
 10  13  15  1   
 11  16  17  1   
 12  16  18  1   
 13  19  20  1   
 14  19  21  1   
 15  22  23  1   
 16  22  24  1   
 17  25  26  1   
 18  25  27  1   
 19  28  29  1   
 20  28  30  1   
 21  31  32  1   
 22  31  33  1   
 23  34  35  1   
 24  34  36  1   
 25  37  38  1   
 26  37  39  1   
 27  40  41  1   
 28  40  42  1   
 29  43  44  1   
 30  43  45  1   
 31  46  47  1   
 32  46  48  1   
 33  49  50  1   
 34  49  51  1   
 35  52  53  1   
 36  52  54  1   
 37  55  56  1   
 38  55  57  1   
 39  58  59  1   
 40  58  60  1   
 41  61  62  1   
 42  61  63  1   
 43  64  65  1   
 44  64  66  1   
 45  67  68  1   
 46  67  69  1   
 47  70  71  1   
 48  70  72  1   
 49  73  74  1   
 50  73  75  1   
 51  76  77  1   
 52  76  78  1   
 53  79  80  1   
 54  79  81  1   
 55  82  83  1   
 56  82  84  1   
 57  85  86  1   
 58  85  87  1   
 59  88  89  1   
 60  88  90  1   
 61  91  92  1   
 62  91  93  1   
 63  94  95  1   
 64  94  96  1   
 65  97  98  1   
 66  97  99  1   
 67 100 101  1   
 68 100 102  1   
 69 103 104  1   
 70 103 105  1   
 71 106 107  1   
 72 106 108  1   
 73 109 110  1   
 74 109 111  1   
 75 112 113  1   
 76 112 114  1   
 77 115 116  1   
 78 115 117  1   
 79 118 119  1   
 80 118 120  1   
 81 121 122  1   
 82 121 123  1   
 83 124 125  1   
 84 124 126  1   
 85 127 128  1   
 86 127 129  1   
 87 130 131  1   
 88 130 132  1   
 89 133 134  1   
 90 133 135  1   
 91 136 137  1   
 92 136 138  1   
 93 139 140  1   
 94 139 141  1   
 95 142 143  1   
 96 142 144  1   
 97 145 146  1   
 98 145 147  1   
 99 148 149  1   
100 148 150  1   
101 151 152  1   
102 151 153  1   
103 154 155  1   
104 154 156  1   
105 157 158  1   
106 157 159  1   
107 160 161  1   
108 160 162  1   
109 163 164  1   
110 163 165  1   
111 166 167  1   
112 166 168  1   
113 169 170  1   
114 169 171  1   
115 172 173  1   
116 172 174  1   
117 175 176  1   
118 175 177  1   
119 178 179  1   
120 178 180  1   
121 181 182  1   
122 181 183  1   
123 184 185  1   
124 184 186  1   
125 187 188  1   
126 187 189  1   
127 190 191  1   
128 190 192  1   
129 193 194  1   
130 193 195  1   
131 196 197  1   
132 196 198  1   
133 199 200  1   
134 199 201  1   
135 202 203  1   
136 202 204  1   
137 205 206  1   
138 205 207  1   
139 208 209  1   
140 208 210  1   
141 211 212  1   
142 211 213  1   
143 214 215  1   
144 214 216  1   
145 217 218  1   
146 217 219  1   
147 220 221  1   
148 220 222  1   
149 223 224  1   
150 223 225  1   
151 226 227  1   
152 226 228  1   
153 229 230  1   
154 229 231  1   
155 232 233  1   
156 232 234  1   
157 235 236  1   
158 235 237  1   
159 238 239  1   
160 238 240  1   
161 241 242  1   
162 241 243  1   
163 244 245  1   
164 244 246  1   
165 247 248  1   
166 247 249  1   
167 250 251  1   
168 250 252  1   
169 253 254  1   
170 253 255  1   
171 256 257  1   
172 256 258  1   
173 259 260  1   
174 259 261  1   
175 262 263  1   
176 262 264  1   
177 265 266  1   
178 265 267  1   
179 268 269  1   
180 268 270  1   
181 271 272  1   
182 271 273  1   
183 274 275  1   
184 274 276  1   
185 277 278  1   
186 277 279  1   
187 280 281  1   
188 280 282  1   
189 283 284  1   
190 283 285  1   
191 286 287  1   
192 286 288  1   
193 289 290  1   
194 289 291  1   
195 292 293  1   
196 292 294  1   
197 295 296  1   
198 295 297  1   
199 298 299  1   
200 298 300  1   
201 301 302  1   
202 301 303  1   
203 304 305  1   
204 304 306  1   
205 307 308  1   
206 307 309  1   
207 310 311  1   
208 310 312  1   
209 313 314  1   
210 313 315  1   
211 316 317  1   
212 316 318  1   
213 319 320  1   
214 319 321  1   
215 322 323  1   
216 322 324  1   
217 325 326  1   
218 325 327  1   
219 328 329  1   
220 328 330  1   
221 331 332  1   
222 331 333  1   
223 334 335  1   
224 334 336  1   
225 337 338  1   
226 337 339  1   
227 340 341  1   
228 340 342  1   
229 343 344  1   
230 343 345  1   
231 346 347  1   
232 346 348  1   
233 349 350  1   
234 349 351  1   
235 352 353  1   
236 352 354  1   
237 355 356  1   
238 355 357  1   
239 358 359  1   
240 358 360  1   
241 361 362  1   
242 361 363  1   
243 364 365  1   
244 364 366  1   
245 367 368  1   
246 367 369  1   
247 370 371  1   
248 370 372  1   
249 373 374  1   
250 373 375  1   
251 376 377  1   
252 376 378  1   
253 379 380  1   
254 379 381  1   
255 382 383  1   
256 382 384  1   
257 385 386  1   
258 385 387  1   
259 388 389  1   
260 388 390  1   
261 391 392  1   
262 391 393  1   
@<TRIPOS>SUBSTRUCTURE
  1 HOH   1 GROUP 4 B **** 0
  2 HOH   4 GROUP 4 B **** 0
  3 HOH   7 GROUP 4 B **** 0
  4 HOH  10 GROUP 4 B **** 0
  5 HOH  13 GROUP 4 B **** 0
  6 HOH  16 GROUP 4 B **** 0
  7 HOH  19 GROUP 4 B **** 0
  8 HOH  22 GROUP 4 B **** 0
  9 HOH  25 GROUP 4 B **** 0
 10 HOH  28 GROUP 4 B **** 0
 11 HOH  31 GROUP 4 B **** 0
 12 HOH  34 GROUP 4 B **** 0
 13 HOH  37 GROUP 4 B **** 0
 14 HOH  40 GROUP 4 B **** 0
 15 HOH  43 GROUP 4 B **** 0
 16 HOH  46 GROUP 4 B **** 0
 17 HOH  49 GROUP 4 B **** 0
 18 HOH  52 GROUP 4 B **** 0
 19 HOH  55 GROUP 4 B **** 0
 20 HOH  58 GROUP 4 B **** 0
 21 HOH  61 GROUP 4 B **** 0
 22 HOH  64 GROUP 4 B **** 0
 23 HOH  67 GROUP 4 B **** 0
 24 HOH  70 GROUP 4 B **** 0
 25 HOH  73 GROUP 4 B **** 0
 26 HOH  76 GROUP 4 B **** 0
 27 HOH  79 GROUP 4 B **** 0
 28 HOH  82 GROUP 4 B **** 0
 29 HOH  85 GROUP 4 B **** 0
 30 HOH  88 GROUP 4 B **** 0
 31 HOH  91 GROUP 4 B **** 0
 32 HOH  94 GROUP 4 B **** 0
 33 HOH  97 GROUP 4 B **** 0
 34 HOH 100 GROUP 4 B **** 0
 35 HOH 103 GROUP 4 B **** 0
 36 HOH 106 GROUP 4 B **** 0
 37 HOH 109 GROUP 4 B **** 0
 38 HOH 112 GROUP 4 B **** 0
 39 HOH 115 GROUP 4 B **** 0
 40 HOH 118 GROUP 4 B **** 0
 41 HOH 121 GROUP 4 B **** 0
 42 HOH 124 GROUP 4 B **** 0
 43 HOH 127 GROUP 4 B **** 0
 44 HOH 130 GROUP 4 B **** 0
 45 HOH 133 GROUP 4 B **** 0
 46 HOH 136 GROUP 4 B **** 0
 47 HOH 139 GROUP 4 B **** 0
 48 HOH 142 GROUP 4 B **** 0
 49 HOH 145 GROUP 4 B **** 0
 50 HOH 148 GROUP 4 B **** 0
 51 HOH 151 GROUP 4 B **** 0
 52 HOH 154 GROUP 4 B **** 0
 53 HOH 157 GROUP 4 B **** 0
 54 HOH 160 GROUP 4 B **** 0
 55 HOH 163 GROUP 4 B **** 0
 56 HOH 166 GROUP 4 B **** 0
 57 HOH 169 GROUP 4 B **** 0
 58 HOH 172 GROUP 4 B **** 0
 59 HOH 175 GROUP 4 B **** 0
 60 HOH 178 GROUP 4 B **** 0
 61 HOH 181 GROUP 4 B **** 0
 62 HOH 184 GROUP 4 B **** 0
 63 HOH 187 GROUP 4 B **** 0
 64 HOH 190 GROUP 4 B **** 0
 65 HOH 193 GROUP 4 B **** 0
 66 HOH 196 GROUP 4 B **** 0
 67 HOH 199 GROUP 4 B **** 0
 68 HOH 202 GROUP 4 B **** 0
 69 HOH 205 GROUP 4 B **** 0
 70 HOH 208 GROUP 4 B **** 0
 71 HOH 211 GROUP 4 B **** 0
 72 HOH 214 GROUP 4 B **** 0
 73 HOH 217 GROUP 4 B **** 0
 74 HOH 220 GROUP 4 B **** 0
 75 HOH 223 GROUP 4 B **** 0
 76 HOH 226 GROUP 4 B **** 0
 77 HOH 229 GROUP 4 B **** 0
 78 HOH 232 GROUP 4 B **** 0
 79 HOH 235 GROUP 4 B **** 0
 80 HOH 238 GROUP 4 B **** 0
 81 HOH 241 GROUP 4 B **** 0
 82 HOH 244 GROUP 4 B **** 0
 83 HOH 247 GROUP 4 B **** 0
 84 HOH 250 GROUP 4 B **** 0
 85 HOH 253 GROUP 4 B **** 0
 86 HOH 256 GROUP 4 B **** 0
 87 HOH 259 GROUP 4 B **** 0
 88 HOH 262 GROUP 4 B **** 0
 89 HOH 265 GROUP 4 B **** 0
 90 HOH 268 GROUP 4 B **** 0
 91 HOH 271 GROUP 4 B **** 0
 92 HOH 274 GROUP 4 B **** 0
 93 HOH 277 GROUP 4 B **** 0
 94 HOH 280 GROUP 4 B **** 0
 95 HOH 283 GROUP 4 B **** 0
 96 HOH 286 GROUP 4 B **** 0
 97 HOH 289 GROUP 4 B **** 0
 98 HOH 292 GROUP 4 B **** 0
 99 HOH 295 GROUP 4 B **** 0
100 HOH 298 GROUP 4 B **** 0
101 HOH 301 GROUP 4 B **** 0
102 HOH 304 GROUP 4 B **** 0
103 HOH 307 GROUP 4 B **** 0
104 HOH 310 GROUP 4 B **** 0
105 HOH 313 GROUP 4 B **** 0
106 HOH 316 GROUP 4 B **** 0
107 HOH 319 GROUP 4 B **** 0
108 HOH 322 GROUP 4 B **** 0
109 HOH 325 GROUP 4 B **** 0
110 HOH 328 GROUP 4 B **** 0
111 HOH 331 GROUP 4 B **** 0
112 HOH 334 GROUP 4 B **** 0
113 HOH 337 GROUP 4 B **** 0
114 HOH 340 GROUP 4 B **** 0
115 HOH 343 GROUP 4 B **** 0
116 HOH 346 GROUP 4 B **** 0
117 HOH 349 GROUP 4 B **** 0
118 HOH 352 GROUP 4 B **** 0
119 HOH 355 GROUP 4 B **** 0
120 HOH 358 GROUP 4 B **** 0
121 HOH 361 GROUP 4 B **** 0
122 HOH 364 GROUP 4 B **** 0
123 HOH 367 GROUP 4 B **** 0
124 HOH 370 GROUP 4 B **** 0
125 HOH 373 GROUP 4 B **** 0
126 HOH 376 GROUP 4 B **** 0
127 HOH 379 GROUP 4 B **** 0
128 HOH 382 GROUP 4 B **** 0
129 HOH 385 GROUP 4 B **** 0
130 HOH 388 GROUP 4 B **** 0
131 HOH 391 GROUP 4 B **** 0

# MOE 2012.10 (io_trps.svl 2012.10)
