@<TRIPOS>MOLECULE
2e2b.B
75 79 1 0 0 
SMALL
USER_CHARGES


@<TRIPOS>ATOM
  1 C1       1.1785    23.9350    32.5376 C.ar  1 Q406   0.0862 
  2 C2       2.0563    24.3130    31.4845 C.ar  1 Q406  -0.1500 
  3 H2       3.1235    24.2931    31.6490 H     1 Q406   0.1500 
  4 C3       1.5526    24.7151    30.2232 C.ar  1 Q406  -0.1500 
  5 H3       2.2441    24.9986    29.4436 H     1 Q406   0.1500 
  6 C4       0.1241    24.7541    29.9564 C.ar  1 Q406  -0.1435 
  7 C5      -0.8114    24.3655    31.0515 C.ar  1 Q406  -0.1435 
  8 C6      -0.2331    23.9736    32.2949 C.ar  1 Q406  -0.1500 
  9 H6      -0.8964    23.6901    33.0987 H     1 Q406   0.1500 
 10 C7      -2.3980    24.3421    30.9624 C.3   1 Q406   1.1635 
 11 F8      -2.8212    23.4288    30.0491 F     1 Q406  -0.3400 
 12 F9      -2.8719    25.5739    30.6026 F     1 Q406  -0.3400 
 13 F10     -2.9814    23.9554    32.1384 F     1 Q406  -0.3400 
 14 C11     -0.2757    25.2112    28.5137 C.3   1 Q406   0.4865 
 15 H111    -0.3948    26.2942    28.5444 H     1 Q406   0.0800 
 16 H112    -1.2352    24.7464    28.2869 H     1 Q406   0.0800 
 17 N12      0.6440    24.9029    27.3647 N.4   1 Q406  -0.9590 
 18 H12      1.5127    25.2812    27.7144 H     1 Q406   0.4500 
 19 C13      0.3464    25.5766    26.0940 C.3   1 Q406   0.3430 
 20 H131     1.1127    26.3176    25.8667 H     1 Q406   0.0800 
 21 H132    -0.6277    26.0635    26.1396 H     1 Q406   0.0800 
 22 C14      0.3424    24.4638    25.0325 C.3   1 Q406  -0.1600 
 23 H141     0.7207    24.8267    24.0768 H     1 Q406   0.0800 
 24 H142    -0.6571    24.0514    24.8947 H     1 Q406   0.0800 
 25 C15      1.2988    23.4222    25.6560 C.3   1 Q406   0.4230 
 26 H15      2.3571    23.6568    25.5419 H     1 Q406   0.0800 
 27 C16      0.7838    23.4438    27.0825 C.3   1 Q406   0.3430 
 28 H161    -0.1772    22.9355    27.1602 H     1 Q406   0.0800 
 29 H162     1.4967    22.9792    27.7638 H     1 Q406   0.0800 
 30 N17      1.2953    22.0362    24.9894 N.4   1 Q406  -0.9590 
 31 H17      0.3127    21.8099    24.9312 H     1 Q406   0.4500 
 32 C18      1.7741    21.9694    23.5880 C.3   1 Q406   0.2630 
 33 H181     1.2358    22.7006    22.9849 H     1 Q406   0.0800 
 34 H182     1.5971    20.9699    23.1908 H     1 Q406   0.0800 
 35 H183     2.8414    22.1886    23.5578 H     1 Q406   0.0800 
 36 C19      2.0331    21.0287    25.8336 C.3   1 Q406   0.2630 
 37 H191     1.6752    21.0845    26.8616 H     1 Q406   0.0800 
 38 H192     3.1010    21.2459    25.8083 H     1 Q406   0.0800 
 39 H193     1.8567    20.0272    25.4413 H     1 Q406   0.0800 
 40 N20      0.0423    18.0857    44.1025 N.ar  1 Q406  -0.6200 
 41 C21     -0.6588    19.1544    44.5215 C.ar  1 Q406   0.4700 
 42 H21     -1.3139    19.0097    45.3678 H     1 Q406   0.1500 
 43 N22     -0.6196    20.3873    43.9836 N.ar  1 Q406  -0.6200 
 44 C23      0.2048    20.5800    42.9084 C.ar  1 Q406   0.1600 
 45 H23      0.2419    21.5653    42.4676 H     1 Q406   0.1500 
 46 C24      1.0509    19.5171    42.3115 C.ar  1 Q406   0.0000 
 47 C25      0.8762    18.2432    43.0326 C.ar  1 Q406   0.1600 
 48 H25      1.4398    17.3857    42.6956 H     1 Q406   0.1500 
 49 C26      1.8897    19.7534    41.2065 C.ar  1 Q406   0.3100 
 50 N27      1.9233    21.0195    40.6600 N.ar  1 Q406  -0.6200 
 51 C28      2.7015    21.2874    39.6189 C.ar  1 Q406   0.7200 
 52 N29      3.4980    20.4199    39.0070 N.ar  1 Q406  -0.6200 
 53 C30      3.5387    19.1235    39.4738 C.ar  1 Q406   0.1600 
 54 H30      4.1823    18.4068    38.9854 H     1 Q406   0.1500 
 55 C31      2.7477    18.7053    40.5911 C.ar  1 Q406  -0.1500 
 56 H31      2.7722    17.6921    40.9641 H     1 Q406   0.1500 
 57 N32      2.6491    22.5965    39.1692 N.pl3 1 Q406  -0.6000 
 58 H32      2.0233    23.2160    39.6637 H     1 Q406   0.4000 
 59 C33      2.7250    23.2012    36.8624 C.ar  1 Q406  -0.1500 
 60 H33      1.7199    22.8209    36.7552 H     1 Q406   0.1500 
 61 C34      3.4127    23.7604    35.7142 C.ar  1 Q406   0.1170 
 62 C35      4.7341    24.2539    35.8703 C.ar  1 Q406  -0.1500 
 63 H35      5.2580    24.6703    35.0226 H     1 Q406   0.1500 
 64 C36      5.3795    24.1999    37.1621 C.ar  1 Q406  -0.1500 
 65 H36      6.3849    24.5759    37.2809 H     1 Q406   0.1500 
 66 C37      4.6800    23.6445    38.2891 C.ar  1 Q406  -0.1435 
 67 C38      3.3621    23.1527    38.1131 C.ar  1 Q406   0.1000 
 68 C39      5.4399    23.6285    39.6129 C.3   1 Q406  -0.0965 
 69 H391     6.4284    24.0649    39.4696 H     1 Q406   0.0800 
 70 H392     5.5434    22.6005    39.9601 H     1 Q406   0.0800 
 71 H393     4.8905    24.2088    40.3542 H     1 Q406   0.0800 
 72 N40      2.8160    23.8441    34.4036 N.am  1 Q406  -0.5470 
 73 H40      3.4250    24.2557    33.7110 H     1 Q406   0.3700 
 74 C41      1.6156    23.4868    33.9147 C.2   1 Q406   0.5438 
 75 O42      0.8572    22.7907    34.5829 O.2   1 Q406  -0.5700 
@<TRIPOS>BOND
  1   1   2  ar  
  2   1   8  ar  
  3   1  74  1   
  4   2   3  1   
  5   2   4  ar  
  6   4   5  1   
  7   4   6  ar  
  8   6   7  ar  
  9   6  14  1   
 10   7   8  ar  
 11   7  10  1   
 12   8   9  1   
 13  10  11  1   
 14  10  12  1   
 15  10  13  1   
 16  14  15  1   
 17  14  16  1   
 18  14  17  1   
 19  17  18  1   
 20  17  19  1   
 21  17  27  1   
 22  19  20  1   
 23  19  21  1   
 24  19  22  1   
 25  22  23  1   
 26  22  24  1   
 27  22  25  1   
 28  25  26  1   
 29  25  27  1   
 30  25  30  1   
 31  27  28  1   
 32  27  29  1   
 33  30  31  1   
 34  30  32  1   
 35  30  36  1   
 36  32  33  1   
 37  32  34  1   
 38  32  35  1   
 39  36  37  1   
 40  36  38  1   
 41  36  39  1   
 42  40  41  ar  
 43  40  47  ar  
 44  41  42  1   
 45  41  43  ar  
 46  43  44  ar  
 47  44  45  1   
 48  44  46  ar  
 49  46  47  ar  
 50  46  49  1   
 51  47  48  1   
 52  49  50  ar  
 53  49  55  ar  
 54  50  51  ar  
 55  51  52  ar  
 56  51  57  1   
 57  52  53  ar  
 58  53  54  1   
 59  53  55  ar  
 60  55  56  1   
 61  57  58  1   
 62  57  67  1   
 63  59  60  1   
 64  59  61  ar  
 65  59  67  ar  
 66  61  62  ar  
 67  61  72  1   
 68  62  63  1   
 69  62  64  ar  
 70  64  65  1   
 71  64  66  ar  
 72  66  67  ar  
 73  66  68  1   
 74  68  69  1   
 75  68  70  1   
 76  68  71  1   
 77  72  73  1   
 78  72  74  am  
 79  74  75  2   
@<TRIPOS>SUBSTRUCTURE
  1 Q406  75 GROUP 4 B **** 0

# MOE 2012.10 (io_trps.svl 2012.10)
