@<TRIPOS>MOLECULE
2e2b.B
141 94 47 0 0 
SMALL
USER_CHARGES


@<TRIPOS>ATOM
  1 O       -4.8215     9.6558    33.5825 O.3    1 HOH   0.0000 
  2 H1      -3.8615     9.6558    33.5825 H      1 HOH   0.0000 
  3 H2      -5.1118    10.3028    34.2296 H      1 HOH   0.0000 
  4 O       -6.2981     6.3510    21.1572 O.3    2 HOH   0.0000 
  5 H1      -5.3381     6.3510    21.1572 H      2 HOH   0.0000 
  6 H2      -6.5884     6.9981    21.8043 H      2 HOH   0.0000 
  7 O       -0.6375    14.3549    43.9760 O.3    3 HOH  -0.8340 
  8 H1      -0.3921    15.0460    44.5912 H      3 HOH   0.4170 
  9 H2      -0.8509    13.6046    44.5307 H      3 HOH   0.4170 
 10 O      -13.6941     5.1914    13.4946 O.3    4 HOH   0.0000 
 11 H1     -12.7341     5.1914    13.4946 H      4 HOH   0.0000 
 12 H2     -13.9843     5.8384    14.1417 H      4 HOH   0.0000 
 13 O       -3.4029    -0.7098    15.3740 O.3    5 HOH   0.0000 
 14 H1      -2.4429    -0.7098    15.3740 H      5 HOH   0.0000 
 15 H2      -3.6932    -0.0628    16.0211 H      5 HOH   0.0000 
 16 O       -4.0549    17.1081    21.5186 O.3    6 HOH   0.0000 
 17 H1      -3.0949    17.1081    21.5186 H      6 HOH   0.0000 
 18 H2      -4.3451    17.7551    22.1657 H      6 HOH   0.0000 
 19 O        4.9998    21.0081    33.9280 O.3    7 HOH  -0.8340 
 20 H1       5.0352    21.8388    33.4538 H      7 HOH   0.4170 
 21 H2       4.1366    20.6501    33.7209 H      7 HOH   0.4170 
 22 O       -8.3046     6.8668    22.6798 O.3    8 HOH   0.0000 
 23 H1      -7.3446     6.8668    22.6798 H      8 HOH   0.0000 
 24 H2      -8.5949     7.5139    23.3269 H      8 HOH   0.0000 
 25 O      -13.0761     4.8451    22.8755 O.3    9 HOH   0.0000 
 26 H1     -12.1161     4.8451    22.8755 H      9 HOH   0.0000 
 27 H2     -13.3664     5.4922    23.5226 H      9 HOH   0.0000 
 28 O      -15.2837    -0.7504    26.9751 O.3   10 HOH   0.0000 
 29 H1     -14.3237    -0.7504    26.9751 H     10 HOH   0.0000 
 30 H2     -15.5740    -0.1033    27.6222 H     10 HOH   0.0000 
 31 O      -17.6167     7.5452    19.0058 O.3   11 HOH   0.0000 
 32 H1     -16.6567     7.5452    19.0058 H     11 HOH   0.0000 
 33 H2     -17.9070     8.1923    19.6529 H     11 HOH   0.0000 
 34 O      -12.0555     4.4893    46.4361 O.3   12 HOH   0.0000 
 35 H1     -11.0955     4.4893    46.4361 H     12 HOH   0.0000 
 36 H2     -12.3458     5.1363    47.0831 H     12 HOH   0.0000 
 37 O        4.9951    20.6419    36.6565 O.3   13 HOH  -0.8340 
 38 H1       4.3652    20.7990    37.3599 H     13 HOH   0.4170 
 39 H2       4.6847    21.1837    35.9309 H     13 HOH   0.4170 
 40 O       -4.8981    16.2685    24.9567 O.3   14 HOH   0.0000 
 41 H1      -3.9381    16.2685    24.9567 H     14 HOH   0.0000 
 42 H2      -5.1884    16.9156    25.6037 H     14 HOH   0.0000 
 43 O       -3.3025    12.6054    27.0598 O.3   15 HOH   0.0000 
 44 H1      -2.3425    12.6054    27.0598 H     15 HOH   0.0000 
 45 H2      -3.5928    13.2525    27.7069 H     15 HOH   0.0000 
 46 O       -1.8699     4.7911    26.7399 O.3   16 HOH   0.0000 
 47 H1      -0.9099     4.7911    26.7399 H     16 HOH   0.0000 
 48 H2      -2.1602     5.4382    27.3870 H     16 HOH   0.0000 
 49 O      -10.3293     2.2783    43.1803 O.3   17 HOH   0.0000 
 50 H1      -9.3693     2.2783    43.1803 H     17 HOH   0.0000 
 51 H2     -10.6196     2.9253    43.8274 H     17 HOH   0.0000 
 52 O      -16.6182     8.4076    14.1134 O.3   18 HOH   0.0000 
 53 H1     -15.6582     8.4076    14.1134 H     18 HOH   0.0000 
 54 H2     -16.9084     9.0546    14.7604 H     18 HOH   0.0000 
 55 O        6.2131    42.3352    34.1015 O.3   19 HOH   0.0000 
 56 H1       7.1731    42.3352    34.1015 H     19 HOH   0.0000 
 57 H2       5.9229    42.9822    34.7485 H     19 HOH   0.0000 
 58 O        9.7857    40.9868    40.4165 O.3   20 HOH   0.0000 
 59 H1      10.7457    40.9868    40.4165 H     20 HOH   0.0000 
 60 H2       9.4955    41.6338    41.0635 H     20 HOH   0.0000 
 61 O       -2.6881     7.7870    33.4141 O.3   21 HOH   0.0000 
 62 H1      -1.7281     7.7870    33.4141 H     21 HOH   0.0000 
 63 H2      -2.9784     8.4341    34.0612 H     21 HOH   0.0000 
 64 O       -5.1487    30.0877    36.0681 O.3   22 HOH   0.0000 
 65 H1      -4.1887    30.0877    36.0681 H     22 HOH   0.0000 
 66 H2      -5.4390    30.7347    36.7151 H     22 HOH   0.0000 
 67 O       -6.9451     5.8486    33.7906 O.3   23 HOH   0.0000 
 68 H1      -5.9851     5.8486    33.7906 H     23 HOH   0.0000 
 69 H2      -7.2354     6.4957    34.4376 H     23 HOH   0.0000 
 70 O      -19.1497    19.7489    45.6072 O.3   24 HOH   0.0000 
 71 H1     -18.1897    19.7489    45.6072 H     24 HOH   0.0000 
 72 H2     -19.4400    20.3959    46.2542 H     24 HOH   0.0000 
 73 O      -13.5946    28.4679    23.4181 O.3   25 HOH   0.0000 
 74 H1     -12.6346    28.4679    23.4181 H     25 HOH   0.0000 
 75 H2     -13.8849    29.1150    24.0651 H     25 HOH   0.0000 
 76 O       11.5684    51.8929    34.6729 O.3   26 HOH   0.0000 
 77 H1      12.5284    51.8929    34.6729 H     26 HOH   0.0000 
 78 H2      11.2781    52.5399    35.3200 H     26 HOH   0.0000 
 79 O        1.8224    38.5668    32.4817 O.3   27 HOH   0.0000 
 80 H1       2.7824    38.5668    32.4817 H     27 HOH   0.0000 
 81 H2       1.5321    39.2139    33.1287 H     27 HOH   0.0000 
 82 O       -4.4552     0.7876    36.6430 O.3   28 HOH   0.0000 
 83 H1      -3.4952     0.7876    36.6430 H     28 HOH   0.0000 
 84 H2      -4.7455     1.4347    37.2900 H     28 HOH   0.0000 
 85 O        1.9382    35.8413    42.7914 O.3   29 HOH   0.0000 
 86 H1       2.8982    35.8413    42.7914 H     29 HOH   0.0000 
 87 H2       1.6479    36.4883    43.4385 H     29 HOH   0.0000 
 88 O      -14.0769    25.5158    40.3154 O.3   30 HOH   0.0000 
 89 H1     -13.1169    25.5158    40.3154 H     30 HOH   0.0000 
 90 H2     -14.3672    26.1629    40.9624 H     30 HOH   0.0000 
 91 O      -12.5406     4.0468    43.5780 O.3   31 HOH   0.0000 
 92 H1     -11.5806     4.0468    43.5780 H     31 HOH   0.0000 
 93 H2     -12.8309     4.6939    44.2251 H     31 HOH   0.0000 
 94 O      -12.7695    -1.2587    25.7274 O.3   32 HOH   0.0000 
 95 H1     -11.8095    -1.2587    25.7274 H     32 HOH   0.0000 
 96 H2     -13.0597    -0.6116    26.3744 H     32 HOH   0.0000 
 97 O      -21.8889    15.1597    47.5883 O.3   33 HOH   0.0000 
 98 H1     -20.9289    15.1597    47.5883 H     33 HOH   0.0000 
 99 H2     -22.1792    15.8067    48.2354 H     33 HOH   0.0000 
100 O       -0.6423    33.5862    34.6197 O.3   34 HOH   0.0000 
101 H1       0.3177    33.5862    34.6197 H     34 HOH   0.0000 
102 H2      -0.9326    34.2332    35.2667 H     34 HOH   0.0000 
103 O       -7.4217    -7.1012    11.8017 O.3   35 HOH   0.0000 
104 H1      -6.4617    -7.1012    11.8017 H     35 HOH   0.0000 
105 H2      -7.7119    -6.4541    12.4487 H     35 HOH   0.0000 
106 O       -6.3766    23.4761    16.8559 O.3   36 HOH   0.0000 
107 H1      -5.4166    23.4761    16.8559 H     36 HOH   0.0000 
108 H2      -6.6668    24.1231    17.5030 H     36 HOH   0.0000 
109 O       -5.9423    16.9477    15.5687 O.3   37 HOH   0.0000 
110 H1      -4.9823    16.9477    15.5687 H     37 HOH   0.0000 
111 H2      -6.2325    17.5947    16.2157 H     37 HOH   0.0000 
112 O       -9.7726    28.6894    41.7940 O.3   38 HOH   0.0000 
113 H1      -8.8126    28.6894    41.7940 H     38 HOH   0.0000 
114 H2     -10.0629    29.3365    42.4410 H     38 HOH   0.0000 
115 O       -3.6512    -7.5524    25.2468 O.3   39 HOH   0.0000 
116 H1      -2.6912    -7.5524    25.2468 H     39 HOH   0.0000 
117 H2      -3.9415    -6.9054    25.8938 H     39 HOH   0.0000 
118 O       -5.6072    13.3894    21.7560 O.3   40 HOH   0.0000 
119 H1      -4.6472    13.3894    21.7560 H     40 HOH   0.0000 
120 H2      -5.8975    14.0364    22.4031 H     40 HOH   0.0000 
121 O       -0.1867    25.6303    21.4997 O.3   41 HOH  -0.8340 
122 H1       0.0314    26.5352    21.2768 H     41 HOH   0.4170 
123 H2      -0.3065    25.1971    20.6546 H     41 HOH   0.4170 
124 O       -6.9507    23.9677    47.4311 O.3   42 HOH   0.0000 
125 H1      -5.9907    23.9677    47.4311 H     42 HOH   0.0000 
126 H2      -7.2410    24.6148    48.0781 H     42 HOH   0.0000 
127 O       -4.5055     5.1927    33.4939 O.3   43 HOH   0.0000 
128 H1      -3.5455     5.1927    33.4939 H     43 HOH   0.0000 
129 H2      -4.7958     5.8398    34.1410 H     43 HOH   0.0000 
130 O       -0.3938     7.8020    40.2180 O.3   44 HOH   0.0000 
131 H1       0.5662     7.8020    40.2180 H     44 HOH   0.0000 
132 H2      -0.6841     8.4491    40.8651 H     44 HOH   0.0000 
133 O      -20.0721    22.6794    45.2766 O.3   45 HOH   0.0000 
134 H1     -19.1121    22.6794    45.2766 H     45 HOH   0.0000 
135 H2     -20.3623    23.3265    45.9236 H     45 HOH   0.0000 
136 O      -13.3661    26.2193    45.6104 O.3   46 HOH   0.0000 
137 H1     -12.4061    26.2193    45.6104 H     46 HOH   0.0000 
138 H2     -13.6564    26.8663    46.2575 H     46 HOH   0.0000 
139 O      -13.6451    31.3552    28.3292 O.3   47 HOH   0.0000 
140 H1     -12.6851    31.3552    28.3292 H     47 HOH   0.0000 
141 H2     -13.9354    32.0022    28.9763 H     47 HOH   0.0000 
@<TRIPOS>BOND
  1   1   2  1   
  2   1   3  1   
  3   4   5  1   
  4   4   6  1   
  5   7   8  1   
  6   7   9  1   
  7  10  11  1   
  8  10  12  1   
  9  13  14  1   
 10  13  15  1   
 11  16  17  1   
 12  16  18  1   
 13  19  20  1   
 14  19  21  1   
 15  22  23  1   
 16  22  24  1   
 17  25  26  1   
 18  25  27  1   
 19  28  29  1   
 20  28  30  1   
 21  31  32  1   
 22  31  33  1   
 23  34  35  1   
 24  34  36  1   
 25  37  38  1   
 26  37  39  1   
 27  40  41  1   
 28  40  42  1   
 29  43  44  1   
 30  43  45  1   
 31  46  47  1   
 32  46  48  1   
 33  49  50  1   
 34  49  51  1   
 35  52  53  1   
 36  52  54  1   
 37  55  56  1   
 38  55  57  1   
 39  58  59  1   
 40  58  60  1   
 41  61  62  1   
 42  61  63  1   
 43  64  65  1   
 44  64  66  1   
 45  67  68  1   
 46  67  69  1   
 47  70  71  1   
 48  70  72  1   
 49  73  74  1   
 50  73  75  1   
 51  76  77  1   
 52  76  78  1   
 53  79  80  1   
 54  79  81  1   
 55  82  83  1   
 56  82  84  1   
 57  85  86  1   
 58  85  87  1   
 59  88  89  1   
 60  88  90  1   
 61  91  92  1   
 62  91  93  1   
 63  94  95  1   
 64  94  96  1   
 65  97  98  1   
 66  97  99  1   
 67 100 101  1   
 68 100 102  1   
 69 103 104  1   
 70 103 105  1   
 71 106 107  1   
 72 106 108  1   
 73 109 110  1   
 74 109 111  1   
 75 112 113  1   
 76 112 114  1   
 77 115 116  1   
 78 115 117  1   
 79 118 119  1   
 80 118 120  1   
 81 121 122  1   
 82 121 123  1   
 83 124 125  1   
 84 124 126  1   
 85 127 128  1   
 86 127 129  1   
 87 130 131  1   
 88 130 132  1   
 89 133 134  1   
 90 133 135  1   
 91 136 137  1   
 92 136 138  1   
 93 139 140  1   
 94 139 141  1   
@<TRIPOS>SUBSTRUCTURE
  1 HOH   1 GROUP 4 B **** 0
  2 HOH   4 GROUP 4 B **** 0
  3 HOH   7 GROUP 4 B **** 0
  4 HOH  10 GROUP 4 B **** 0
  5 HOH  13 GROUP 4 B **** 0
  6 HOH  16 GROUP 4 B **** 0
  7 HOH  19 GROUP 4 B **** 0
  8 HOH  22 GROUP 4 B **** 0
  9 HOH  25 GROUP 4 B **** 0
 10 HOH  28 GROUP 4 B **** 0
 11 HOH  31 GROUP 4 B **** 0
 12 HOH  34 GROUP 4 B **** 0
 13 HOH  37 GROUP 4 B **** 0
 14 HOH  40 GROUP 4 B **** 0
 15 HOH  43 GROUP 4 B **** 0
 16 HOH  46 GROUP 4 B **** 0
 17 HOH  49 GROUP 4 B **** 0
 18 HOH  52 GROUP 4 B **** 0
 19 HOH  55 GROUP 4 B **** 0
 20 HOH  58 GROUP 4 B **** 0
 21 HOH  61 GROUP 4 B **** 0
 22 HOH  64 GROUP 4 B **** 0
 23 HOH  67 GROUP 4 B **** 0
 24 HOH  70 GROUP 4 B **** 0
 25 HOH  73 GROUP 4 B **** 0
 26 HOH  76 GROUP 4 B **** 0
 27 HOH  79 GROUP 4 B **** 0
 28 HOH  82 GROUP 4 B **** 0
 29 HOH  85 GROUP 4 B **** 0
 30 HOH  88 GROUP 4 B **** 0
 31 HOH  91 GROUP 4 B **** 0
 32 HOH  94 GROUP 4 B **** 0
 33 HOH  97 GROUP 4 B **** 0
 34 HOH 100 GROUP 4 B **** 0
 35 HOH 103 GROUP 4 B **** 0
 36 HOH 106 GROUP 4 B **** 0
 37 HOH 109 GROUP 4 B **** 0
 38 HOH 112 GROUP 4 B **** 0
 39 HOH 115 GROUP 4 B **** 0
 40 HOH 118 GROUP 4 B **** 0
 41 HOH 121 GROUP 4 B **** 0
 42 HOH 124 GROUP 4 B **** 0
 43 HOH 127 GROUP 4 B **** 0
 44 HOH 130 GROUP 4 B **** 0
 45 HOH 133 GROUP 4 B **** 0
 46 HOH 136 GROUP 4 B **** 0
 47 HOH 139 GROUP 4 B **** 0

# MOE 2012.10 (io_trps.svl 2012.10)
