@<TRIPOS>MOLECULE
2g1t.A
732 488 244 0 0 
SMALL
USER_CHARGES


@<TRIPOS>ATOM
  1 O        2.3634    16.0341    32.1478 O.3     1 HOH  -0.8340 
  2 H1       2.3672    15.7839    31.2239 H       1 HOH   0.4170 
  3 H2       2.0662    16.9440    32.1487 H       1 HOH   0.4170 
  4 O       -6.2161     9.9842    34.0245 O.3     2 HOH   0.0000 
  5 H1      -5.2561     9.9842    34.0245 H       2 HOH   0.0000 
  6 H2      -6.5064    10.6313    34.6716 H       2 HOH   0.0000 
  7 O      -12.3568     6.3489    12.6988 O.3     3 HOH   0.0000 
  8 H1     -11.3968     6.3489    12.6988 H       3 HOH   0.0000 
  9 H2     -12.6471     6.9960    13.3459 H       3 HOH   0.0000 
 10 O       -4.4326    12.5327    22.3433 O.3     4 HOH   0.0000 
 11 H1      -3.4726    12.5327    22.3433 H       4 HOH   0.0000 
 12 H2      -4.7229    13.1797    22.9903 H       4 HOH   0.0000 
 13 O       -1.7593    16.1492    22.5063 O.3     5 HOH   0.0000 
 14 H1      -0.7993    16.1492    22.5063 H       5 HOH   0.0000 
 15 H2      -2.0495    16.7963    23.1533 H       5 HOH   0.0000 
 16 O       -8.6034     7.0420    22.8065 O.3     6 HOH   0.0000 
 17 H1      -7.6434     7.0420    22.8065 H       6 HOH   0.0000 
 18 H2      -8.8936     7.6891    23.4535 H       6 HOH   0.0000 
 19 O       -3.2010    15.6651    25.7548 O.3     7 HOH   0.0000 
 20 H1      -2.2410    15.6651    25.7548 H       7 HOH   0.0000 
 21 H2      -3.4913    16.3122    26.4018 H       7 HOH   0.0000 
 22 O       -6.4450    34.1855    31.8080 O.3     8 HOH   0.0000 
 23 H1      -5.4850    34.1855    31.8080 H       8 HOH   0.0000 
 24 H2      -6.7353    34.8326    32.4550 H       8 HOH   0.0000 
 25 O       -0.5689     7.5109     7.4499 O.3     9 HOH   0.0000 
 26 H1       0.3911     7.5109     7.4499 H       9 HOH   0.0000 
 27 H2      -0.8592     8.1580     8.0969 H       9 HOH   0.0000 
 28 O      -16.4679     9.5921    17.4173 O.3    10 HOH   0.0000 
 29 H1     -15.5079     9.5921    17.4173 H      10 HOH   0.0000 
 30 H2     -16.7582    10.2392    18.0643 H      10 HOH   0.0000 
 31 O        2.4379    14.9845    34.8069 O.3    11 HOH  -0.8340 
 32 H1       2.4825    15.6757    34.1463 H      11 HOH   0.4170 
 33 H2       3.0437    14.3131    34.4931 H      11 HOH   0.4170 
 34 O       -2.3440    29.8365    35.8174 O.3    12 HOH   0.0000 
 35 H1      -1.3840    29.8365    35.8174 H      12 HOH   0.0000 
 36 H2      -2.6342    30.4835    36.4645 H      12 HOH   0.0000 
 37 O       -4.6092     7.6082    34.6753 O.3    13 HOH   0.0000 
 38 H1      -3.6492     7.6082    34.6753 H      13 HOH   0.0000 
 39 H2      -4.8995     8.2553    35.3223 H      13 HOH   0.0000 
 40 O       -8.5974    25.2677    46.9448 O.3    14 HOH   0.0000 
 41 H1      -7.6374    25.2677    46.9448 H      14 HOH   0.0000 
 42 H2      -8.8877    25.9148    47.5919 H      14 HOH   0.0000 
 43 O      -13.5866     6.1217    22.0397 O.3    15 HOH   0.0000 
 44 H1     -12.6266     6.1217    22.0397 H      15 HOH   0.0000 
 45 H2     -13.8769     6.7688    22.6868 H      15 HOH   0.0000 
 46 O       -3.3287     0.1972    19.7578 O.3    16 HOH   0.0000 
 47 H1      -2.3687     0.1972    19.7578 H      16 HOH   0.0000 
 48 H2      -3.6190     0.8442    20.4048 H      16 HOH   0.0000 
 49 O       -6.2545     5.9880    21.5299 O.3    17 HOH   0.0000 
 50 H1      -5.2945     5.9880    21.5299 H      17 HOH   0.0000 
 51 H2      -6.5448     6.6350    22.1770 H      17 HOH   0.0000 
 52 O        3.0609    23.7917    22.3271 O.3    18 HOH   0.0000 
 53 H1       4.0209    23.7917    22.3271 H      18 HOH   0.0000 
 54 H2       2.7706    24.4388    22.9741 H      18 HOH   0.0000 
 55 O        3.3292    17.0172    28.3537 O.3    19 HOH  -0.8340 
 56 H1       2.5598    17.5232    28.0924 H      19 HOH   0.4170 
 57 H2       2.9776    16.3029    28.8851 H      19 HOH   0.4170 
 58 O        3.1568    31.9538    36.2270 O.3    20 HOH   0.0000 
 59 H1       4.1168    31.9538    36.2270 H      20 HOH   0.0000 
 60 H2       2.8665    32.6008    36.8741 H      20 HOH   0.0000 
 61 O        1.1143    22.0807    36.8811 O.3    21 HOH  -0.8340 
 62 H1       1.2225    23.0038    36.6518 H      21 HOH   0.4170 
 63 H2       1.8832    21.8737    37.4123 H      21 HOH   0.4170 
 64 O       -4.8071    29.6726    38.6802 O.3    22 HOH   0.0000 
 65 H1      -3.8471    29.6726    38.6802 H      22 HOH   0.0000 
 66 H2      -5.0974    30.3197    39.3273 H      22 HOH   0.0000 
 67 O      -14.8096     0.6613    25.3063 O.3    23 HOH   0.0000 
 68 H1     -13.8496     0.6613    25.3063 H      23 HOH   0.0000 
 69 H2     -15.0999     1.3084    25.9533 H      23 HOH   0.0000 
 70 O       -0.4855    15.1685    37.9266 O.3    24 HOH  -0.8340 
 71 H1      -0.5768    15.8903    38.5486 H      24 HOH   0.4170 
 72 H2      -1.3579    14.7771    37.8834 H      24 HOH   0.4170 
 73 O      -17.6584     1.5417    25.6500 O.3    25 HOH   0.0000 
 74 H1     -16.6984     1.5417    25.6500 H      25 HOH   0.0000 
 75 H2     -17.9487     2.1887    26.2970 H      25 HOH   0.0000 
 76 O       -6.1464    23.8729    46.1630 O.3    26 HOH   0.0000 
 77 H1      -5.1864    23.8729    46.1630 H      26 HOH   0.0000 
 78 H2      -6.4367    24.5200    46.8101 H      26 HOH   0.0000 
 79 O       -7.5813    13.2223    44.7753 O.3    27 HOH   0.0000 
 80 H1      -6.6213    13.2223    44.7753 H      27 HOH   0.0000 
 81 H2      -7.8716    13.8693    45.4224 H      27 HOH   0.0000 
 82 O       26.3596    18.8880    37.4103 O.3    28 HOH   0.0000 
 83 H1      27.3196    18.8880    37.4103 H      28 HOH   0.0000 
 84 H2      26.0694    19.5351    38.0574 H      28 HOH   0.0000 
 85 O      -13.2393    12.7035    10.9628 O.3    29 HOH   0.0000 
 86 H1     -12.2793    12.7035    10.9628 H      29 HOH   0.0000 
 87 H2     -13.5296    13.3506    11.6098 H      29 HOH   0.0000 
 88 O        2.3650    29.2842    34.8461 O.3    30 HOH   0.0000 
 89 H1       3.3250    29.2842    34.8461 H      30 HOH   0.0000 
 90 H2       2.0747    29.9312    35.4932 H      30 HOH   0.0000 
 91 O       15.2425    17.9834    32.0365 O.3    31 HOH   0.0000 
 92 H1      16.2025    17.9834    32.0365 H      31 HOH   0.0000 
 93 H2      14.9522    18.6305    32.6836 H      31 HOH   0.0000 
 94 O        4.0863    21.2691    35.8040 O.3    32 HOH  -0.8340 
 95 H1       3.8854    21.7906    35.0269 H      32 HOH   0.4170 
 96 H2       3.6689    20.4234    35.6400 H      32 HOH   0.4170 
 97 O       19.1952    16.5823    34.5856 O.3    33 HOH   0.0000 
 98 H1      20.1552    16.5823    34.5856 H      33 HOH   0.0000 
 99 H2      18.9049    17.2294    35.2326 H      33 HOH   0.0000 
100 O      -11.2097    23.8393    14.4967 O.3    34 HOH   0.0000 
101 H1     -10.2497    23.8393    14.4967 H      34 HOH   0.0000 
102 H2     -11.5000    24.4864    15.1437 H      34 HOH   0.0000 
103 O       -9.0498     6.6083    33.9802 O.3    35 HOH   0.0000 
104 H1      -8.0898     6.6083    33.9802 H      35 HOH   0.0000 
105 H2      -9.3401     7.2554    34.6273 H      35 HOH   0.0000 
106 O        4.5869    16.7502    18.3784 O.3    36 HOH   0.0000 
107 H1       5.5469    16.7502    18.3784 H      36 HOH   0.0000 
108 H2       4.2966    17.3973    19.0254 H      36 HOH   0.0000 
109 O      -13.6051    20.1480    46.3344 O.3    37 HOH   0.0000 
110 H1     -12.6451    20.1480    46.3344 H      37 HOH   0.0000 
111 H2     -13.8953    20.7951    46.9814 H      37 HOH   0.0000 
112 O        5.4815    20.9530    40.6015 O.3    38 HOH  -0.8340 
113 H1       6.3119    21.3953    40.7779 H      38 HOH   0.4170 
114 H2       5.5895    20.0801    40.9793 H      38 HOH   0.4170 
115 O      -10.7354    -6.1502    21.7345 O.3    39 HOH   0.0000 
116 H1      -9.7754    -6.1502    21.7345 H      39 HOH   0.0000 
117 H2     -11.0257    -5.5032    22.3815 H      39 HOH   0.0000 
118 O       -2.0271    12.0426    39.0693 O.3    40 HOH  -0.8340 
119 H1      -2.7493    11.4171    39.0108 H      40 HOH   0.4170 
120 H2      -2.3374    12.8126    38.5927 H      40 HOH   0.4170 
121 O       -5.9954     3.7438    36.7440 O.3    41 HOH   0.0000 
122 H1      -5.0354     3.7438    36.7440 H      41 HOH   0.0000 
123 H2      -6.2856     4.3908    37.3911 H      41 HOH   0.0000 
124 O      -17.4089     0.4679    13.7752 O.3    42 HOH   0.0000 
125 H1     -16.4489     0.4679    13.7752 H      42 HOH   0.0000 
126 H2     -17.6991     1.1150    14.4222 H      42 HOH   0.0000 
127 O      -15.0947    -1.9447    26.7160 O.3    43 HOH   0.0000 
128 H1     -14.1347    -1.9447    26.7160 H      43 HOH   0.0000 
129 H2     -15.3850    -1.2977    27.3630 H      43 HOH   0.0000 
130 O       24.8540    27.1368    25.0118 O.3    44 HOH   0.0000 
131 H1      25.8140    27.1368    25.0118 H      44 HOH   0.0000 
132 H2      24.5638    27.7839    25.6589 H      44 HOH   0.0000 
133 O       -1.4391    22.6524    17.3221 O.3    45 HOH   0.0000 
134 H1      -0.4791    22.6524    17.3221 H      45 HOH   0.0000 
135 H2      -1.7294    23.2994    17.9692 H      45 HOH   0.0000 
136 O      -12.4087    29.7247    33.7646 O.3    46 HOH   0.0000 
137 H1     -11.4487    29.7247    33.7646 H      46 HOH   0.0000 
138 H2     -12.6990    30.3718    34.4117 H      46 HOH   0.0000 
139 O      -12.1171    26.7057    45.8622 O.3    47 HOH   0.0000 
140 H1     -11.1571    26.7057    45.8622 H      47 HOH   0.0000 
141 H2     -12.4074    27.3527    46.5093 H      47 HOH   0.0000 
142 O        0.2525    35.6975    30.3166 O.3    48 HOH   0.0000 
143 H1       1.2125    35.6975    30.3166 H      48 HOH   0.0000 
144 H2      -0.0378    36.3446    30.9637 H      48 HOH   0.0000 
145 O       -3.4621    17.3889    47.8365 O.3    49 HOH  -0.8340 
146 H1      -4.3467    17.3188    48.1954 H      49 HOH   0.4170 
147 H2      -3.4775    18.1915    47.3151 H      49 HOH   0.4170 
148 O       -8.5217    23.7683    17.9081 O.3    50 HOH   0.0000 
149 H1      -7.5617    23.7683    17.9081 H      50 HOH   0.0000 
150 H2      -8.8120    24.4154    18.5552 H      50 HOH   0.0000 
151 O      -12.9489    12.1826    46.8191 O.3    51 HOH   0.0000 
152 H1     -11.9889    12.1826    46.8191 H      51 HOH   0.0000 
153 H2     -13.2392    12.8297    47.4661 H      51 HOH   0.0000 
154 O       -8.7546    -5.5792    11.5506 O.3    52 HOH   0.0000 
155 H1      -7.7946    -5.5792    11.5506 H      52 HOH   0.0000 
156 H2      -9.0449    -4.9322    12.1976 H      52 HOH   0.0000 
157 O      -18.8404    -1.2474    26.0827 O.3    53 HOH   0.0000 
158 H1     -17.8804    -1.2474    26.0827 H      53 HOH   0.0000 
159 H2     -19.1307    -0.6003    26.7297 H      53 HOH   0.0000 
160 O       11.5831    20.6030    24.3778 O.3    54 HOH   0.0000 
161 H1      12.5431    20.6030    24.3778 H      54 HOH   0.0000 
162 H2      11.2928    21.2501    25.0249 H      54 HOH   0.0000 
163 O       -3.1016    16.1011    15.5966 O.3    55 HOH   0.0000 
164 H1      -2.1416    16.1011    15.5966 H      55 HOH   0.0000 
165 H2      -3.3919    16.7481    16.2436 H      55 HOH   0.0000 
166 O       20.7826     8.4270    35.5981 O.3    56 HOH   0.0000 
167 H1      21.7426     8.4270    35.5981 H      56 HOH   0.0000 
168 H2      20.4923     9.0741    36.2451 H      56 HOH   0.0000 
169 O      -23.4918    16.0978    34.0588 O.3    57 HOH   0.0000 
170 H1     -22.5318    16.0978    34.0588 H      57 HOH   0.0000 
171 H2     -23.7821    16.7449    34.7059 H      57 HOH   0.0000 
172 O       10.7582    31.3260    26.0482 O.3    58 HOH   0.0000 
173 H1      11.7182    31.3260    26.0482 H      58 HOH   0.0000 
174 H2      10.4679    31.9731    26.6953 H      58 HOH   0.0000 
175 O        1.6450    20.8485    39.4391 O.3    59 HOH  -0.8340 
176 H1       2.1114    21.4078    40.0604 H      59 HOH   0.4170 
177 H2       2.2543    20.1334    39.2558 H      59 HOH   0.4170 
178 O        0.8222    26.8658    46.2889 O.3    60 HOH   0.0000 
179 H1       1.7822    26.8658    46.2889 H      60 HOH   0.0000 
180 H2       0.5320    27.5129    46.9359 H      60 HOH   0.0000 
181 O       12.3457    11.9398    41.1243 O.3    61 HOH   0.0000 
182 H1      13.3057    11.9398    41.1243 H      61 HOH   0.0000 
183 H2      12.0555    12.5869    41.7714 H      61 HOH   0.0000 
184 O        5.3188     9.8365    22.4383 O.3    62 HOH   0.0000 
185 H1       6.2788     9.8365    22.4383 H      62 HOH   0.0000 
186 H2       5.0285    10.4836    23.0854 H      62 HOH   0.0000 
187 O       16.7077     9.3739    34.5668 O.3    63 HOH   0.0000 
188 H1      17.6677     9.3739    34.5668 H      63 HOH   0.0000 
189 H2      16.4175    10.0209    35.2139 H      63 HOH   0.0000 
190 O      -14.5220    21.7633    49.3978 O.3    64 HOH   0.0000 
191 H1     -13.5620    21.7633    49.3978 H      64 HOH   0.0000 
192 H2     -14.8123    22.4103    50.0449 H      64 HOH   0.0000 
193 O       12.4222    30.7803    50.2045 O.3    65 HOH   0.0000 
194 H1      13.3822    30.7803    50.2045 H      65 HOH   0.0000 
195 H2      12.1319    31.4274    50.8515 H      65 HOH   0.0000 
196 O        4.4738    18.5750    22.6676 O.3    66 HOH   0.0000 
197 H1       5.4338    18.5750    22.6676 H      66 HOH   0.0000 
198 H2       4.1835    19.2220    23.3147 H      66 HOH   0.0000 
199 O       -4.0083    21.6796    16.2086 O.3    67 HOH   0.0000 
200 H1      -3.0483    21.6796    16.2086 H      67 HOH   0.0000 
201 H2      -4.2986    22.3267    16.8557 H      67 HOH   0.0000 
202 O       17.0105    10.0062    37.7783 O.3    68 HOH   0.0000 
203 H1      17.9705    10.0062    37.7783 H      68 HOH   0.0000 
204 H2      16.7202    10.6533    38.4253 H      68 HOH   0.0000 
205 O       -9.0727    29.1841    22.2475 O.3    69 HOH   0.0000 
206 H1      -8.1127    29.1841    22.2475 H      69 HOH   0.0000 
207 H2      -9.3629    29.8312    22.8946 H      69 HOH   0.0000 
208 O       11.0869    14.3632    52.0028 O.3    70 HOH   0.0000 
209 H1      12.0469    14.3632    52.0028 H      70 HOH   0.0000 
210 H2      10.7966    15.0102    52.6499 H      70 HOH   0.0000 
211 O      -14.3399    23.8873    14.4467 O.3    71 HOH   0.0000 
212 H1     -13.3799    23.8873    14.4467 H      71 HOH   0.0000 
213 H2     -14.6302    24.5343    15.0937 H      71 HOH   0.0000 
214 O       -0.3516    15.0908    15.4599 O.3    72 HOH   0.0000 
215 H1       0.6084    15.0908    15.4599 H      72 HOH   0.0000 
216 H2      -0.6419    15.7378    16.1069 H      72 HOH   0.0000 
217 O      -12.5472     0.3222    33.5488 O.3    73 HOH   0.0000 
218 H1     -11.5872     0.3222    33.5488 H      73 HOH   0.0000 
219 H2     -12.8375     0.9693    34.1958 H      73 HOH   0.0000 
220 O       21.8749    24.2945    26.9118 O.3    74 HOH   0.0000 
221 H1      22.8349    24.2945    26.9118 H      74 HOH   0.0000 
222 H2      21.5847    24.9415    27.5588 H      74 HOH   0.0000 
223 O      -18.6200     3.3639    27.6978 O.3    75 HOH   0.0000 
224 H1     -17.6600     3.3639    27.6978 H      75 HOH   0.0000 
225 H2     -18.9102     4.0110    28.3449 H      75 HOH   0.0000 
226 O       -2.0972    13.6083    23.7573 O.3    76 HOH   0.0000 
227 H1      -1.1372    13.6083    23.7573 H      76 HOH   0.0000 
228 H2      -2.3874    14.2554    24.4043 H      76 HOH   0.0000 
229 O      -10.3980    30.1245    28.7590 O.3    77 HOH   0.0000 
230 H1      -9.4380    30.1245    28.7590 H      77 HOH   0.0000 
231 H2     -10.6882    30.7715    29.4061 H      77 HOH   0.0000 
232 O       16.0760    17.0566    34.9523 O.3    78 HOH   0.0000 
233 H1      17.0360    17.0566    34.9523 H      78 HOH   0.0000 
234 H2      15.7857    17.7037    35.5993 H      78 HOH   0.0000 
235 O       -3.9334     9.6124    39.0253 O.3    79 HOH  -0.8340 
236 H1      -3.5706     9.0196    39.6835 H      79 HOH   0.4170 
237 H2      -4.7754     9.8875    39.3882 H      79 HOH   0.4170 
238 O        3.0044    31.3694    27.1371 O.3    80 HOH   0.0000 
239 H1       3.9644    31.3694    27.1371 H      80 HOH   0.0000 
240 H2       2.7141    32.0164    27.7842 H      80 HOH   0.0000 
241 O       13.3258    13.0266    44.3460 O.3    81 HOH   0.0000 
242 H1      14.2858    13.0266    44.3460 H      81 HOH   0.0000 
243 H2      13.0355    13.6737    44.9931 H      81 HOH   0.0000 
244 O      -21.3780    15.6396    32.0933 O.3    82 HOH   0.0000 
245 H1     -20.4180    15.6396    32.0933 H      82 HOH   0.0000 
246 H2     -21.6683    16.2866    32.7403 H      82 HOH   0.0000 
247 O       -3.2194    -4.3536    27.3186 O.3    83 HOH   0.0000 
248 H1      -2.2594    -4.3536    27.3186 H      83 HOH   0.0000 
249 H2      -3.5097    -3.7065    27.9657 H      83 HOH   0.0000 
250 O       23.0333    21.7893    28.2661 O.3    84 HOH   0.0000 
251 H1      23.9933    21.7893    28.2661 H      84 HOH   0.0000 
252 H2      22.7430    22.4363    28.9131 H      84 HOH   0.0000 
253 O      -13.6504    27.5001    38.8339 O.3    85 HOH   0.0000 
254 H1     -12.6904    27.5001    38.8339 H      85 HOH   0.0000 
255 H2     -13.9407    28.1472    39.4809 H      85 HOH   0.0000 
256 O      -26.2380    16.8858    33.4515 O.3    86 HOH   0.0000 
257 H1     -25.2780    16.8858    33.4515 H      86 HOH   0.0000 
258 H2     -26.5283    17.5328    34.0986 H      86 HOH   0.0000 
259 O       15.8183    11.3109    31.4121 O.3    87 HOH   0.0000 
260 H1      16.7783    11.3109    31.4121 H      87 HOH   0.0000 
261 H2      15.5280    11.9579    32.0592 H      87 HOH   0.0000 
262 O        0.3106    27.9141    52.3031 O.3    88 HOH   0.0000 
263 H1       1.2706    27.9141    52.3031 H      88 HOH   0.0000 
264 H2       0.0204    28.5611    52.9502 H      88 HOH   0.0000 
265 O      -10.2081     5.5190     9.6960 O.3    89 HOH   0.0000 
266 H1      -9.2481     5.5190     9.6960 H      89 HOH   0.0000 
267 H2     -10.4983     6.1660    10.3431 H      89 HOH   0.0000 
268 O        8.6263     8.9325    39.2047 O.3    90 HOH   0.0000 
269 H1       9.5863     8.9325    39.2047 H      90 HOH   0.0000 
270 H2       8.3360     9.5796    39.8518 H      90 HOH   0.0000 
271 O      -19.9993    25.8727    20.4514 O.3    91 HOH   0.0000 
272 H1     -19.0393    25.8727    20.4514 H      91 HOH   0.0000 
273 H2     -20.2896    26.5197    21.0985 H      91 HOH   0.0000 
274 O      -15.5967    29.8866    24.7214 O.3    92 HOH   0.0000 
275 H1     -14.6367    29.8866    24.7214 H      92 HOH   0.0000 
276 H2     -15.8870    30.5337    25.3684 H      92 HOH   0.0000 
277 O      -13.8636    20.9949    13.3315 O.3    93 HOH   0.0000 
278 H1     -12.9036    20.9949    13.3315 H      93 HOH   0.0000 
279 H2     -14.1539    21.6419    13.9786 H      93 HOH   0.0000 
280 O       -0.2241    10.5927    23.9084 O.3    94 HOH   0.0000 
281 H1       0.7359    10.5927    23.9084 H      94 HOH   0.0000 
282 H2      -0.5144    11.2398    24.5555 H      94 HOH   0.0000 
283 O        1.6163     8.7633    42.3598 O.3    95 HOH  -0.8340 
284 H1       0.8267     8.5322    42.8490 H      95 HOH   0.4170 
285 H2       1.6815     8.0936    41.6790 H      95 HOH   0.4170 
286 O       12.8895    32.3938    47.2650 O.3    96 HOH   0.0000 
287 H1      13.8495    32.3938    47.2650 H      96 HOH   0.0000 
288 H2      12.5992    33.0408    47.9121 H      96 HOH   0.0000 
289 O        9.3404     5.0455    22.9556 O.3    97 HOH   0.0000 
290 H1      10.3004     5.0455    22.9556 H      97 HOH   0.0000 
291 H2       9.0501     5.6926    23.6027 H      97 HOH   0.0000 
292 O      -14.3132     9.8622    12.5877 O.3    98 HOH   0.0000 
293 H1     -13.3532     9.8622    12.5877 H      98 HOH   0.0000 
294 H2     -14.6035    10.5093    13.2347 H      98 HOH   0.0000 
295 O       -4.2650    -1.9117    16.9368 O.3    99 HOH   0.0000 
296 H1      -3.3050    -1.9117    16.9368 H      99 HOH   0.0000 
297 H2      -4.5553    -1.2646    17.5839 H      99 HOH   0.0000 
298 O      -21.1694    14.0320    17.8998 O.3   100 HOH   0.0000 
299 H1     -20.2094    14.0320    17.8998 H     100 HOH   0.0000 
300 H2     -21.4597    14.6790    18.5469 H     100 HOH   0.0000 
301 O       22.9276    15.5457    38.4907 O.3   101 HOH   0.0000 
302 H1      23.8876    15.5457    38.4907 H     101 HOH   0.0000 
303 H2      22.6374    16.1927    39.1378 H     101 HOH   0.0000 
304 O      -14.6339    13.8730    48.8490 O.3   102 HOH   0.0000 
305 H1     -13.6739    13.8730    48.8490 H     102 HOH   0.0000 
306 H2     -14.9242    14.5200    49.4960 H     102 HOH   0.0000 
307 O       -0.1435    14.6232    12.3587 O.3   103 HOH   0.0000 
308 H1       0.8165    14.6232    12.3587 H     103 HOH   0.0000 
309 H2      -0.4337    15.2703    13.0058 H     103 HOH   0.0000 
310 O      -15.0397     4.6659    39.9951 O.3   104 HOH   0.0000 
311 H1     -14.0797     4.6659    39.9951 H     104 HOH   0.0000 
312 H2     -15.3300     5.3130    40.6422 H     104 HOH   0.0000 
313 O        7.5417    -2.4743    20.9504 O.3   105 HOH   0.0000 
314 H1       8.5017    -2.4743    20.9504 H     105 HOH   0.0000 
315 H2       7.2514    -1.8273    21.5975 H     105 HOH   0.0000 
316 O       14.2776    20.4333    52.7458 O.3   106 HOH   0.0000 
317 H1      15.2376    20.4333    52.7458 H     106 HOH   0.0000 
318 H2      13.9873    21.0803    53.3928 H     106 HOH   0.0000 
319 O       -3.7221    20.5388    13.4755 O.3   107 HOH   0.0000 
320 H1      -2.7621    20.5388    13.4755 H     107 HOH   0.0000 
321 H2      -4.0124    21.1859    14.1225 H     107 HOH   0.0000 
322 O       -0.4991    26.7352    49.6713 O.3   108 HOH   0.0000 
323 H1       0.4609    26.7352    49.6713 H     108 HOH   0.0000 
324 H2      -0.7894    27.3823    50.3183 H     108 HOH   0.0000 
325 O      -18.1057    -1.6133    23.2329 O.3   109 HOH   0.0000 
326 H1     -17.1457    -1.6133    23.2329 H     109 HOH   0.0000 
327 H2     -18.3959    -0.9662    23.8799 H     109 HOH   0.0000 
328 O      -20.9824     7.7430    46.7359 O.3   110 HOH   0.0000 
329 H1     -20.0224     7.7430    46.7359 H     110 HOH   0.0000 
330 H2     -21.2727     8.3901    47.3830 H     110 HOH   0.0000 
331 O        7.0654    39.9665    46.9514 O.3   111 HOH   0.0000 
332 H1       8.0254    39.9665    46.9514 H     111 HOH   0.0000 
333 H2       6.7752    40.6135    47.5984 H     111 HOH   0.0000 
334 O        5.5765    16.3873    56.3082 O.3   112 HOH   0.0000 
335 H1       6.5365    16.3873    56.3082 H     112 HOH   0.0000 
336 H2       5.2863    17.0343    56.9552 H     112 HOH   0.0000 
337 O      -13.2698    28.0240    17.1527 O.3   113 HOH   0.0000 
338 H1     -12.3098    28.0240    17.1527 H     113 HOH   0.0000 
339 H2     -13.5601    28.6710    17.7997 H     113 HOH   0.0000 
340 O       -8.8342     5.6139    44.6653 O.3   114 HOH   0.0000 
341 H1      -7.8742     5.6139    44.6653 H     114 HOH   0.0000 
342 H2      -9.1245     6.2609    45.3123 H     114 HOH   0.0000 
343 O      -10.1088    28.2421    18.3882 O.3   115 HOH   0.0000 
344 H1      -9.1488    28.2421    18.3882 H     115 HOH   0.0000 
345 H2     -10.3991    28.8891    19.0353 H     115 HOH   0.0000 
346 O       -5.8831    10.6310    12.3499 O.3   116 HOH   0.0000 
347 H1      -4.9231    10.6310    12.3499 H     116 HOH   0.0000 
348 H2      -6.1734    11.2780    12.9970 H     116 HOH   0.0000 
349 O       -6.3792    19.8640    12.1689 O.3   117 HOH   0.0000 
350 H1      -5.4192    19.8640    12.1689 H     117 HOH   0.0000 
351 H2      -6.6694    20.5111    12.8159 H     117 HOH   0.0000 
352 O      -28.2198    14.5164    33.6053 O.3   118 HOH   0.0000 
353 H1     -27.2598    14.5164    33.6053 H     118 HOH   0.0000 
354 H2     -28.5101    15.1635    34.2524 H     118 HOH   0.0000 
355 O       -2.3972    -1.0692    14.4926 O.3   119 HOH   0.0000 
356 H1      -1.4372    -1.0692    14.4926 H     119 HOH   0.0000 
357 H2      -2.6875    -0.4221    15.1396 H     119 HOH   0.0000 
358 O        0.3568    21.4472    15.2292 O.3   120 HOH   0.0000 
359 H1       1.3168    21.4472    15.2292 H     120 HOH   0.0000 
360 H2       0.0665    22.0943    15.8763 H     120 HOH   0.0000 
361 O       -2.6982    17.4626    12.8518 O.3   121 HOH   0.0000 
362 H1      -1.7382    17.4626    12.8518 H     121 HOH   0.0000 
363 H2      -2.9885    18.1096    13.4988 H     121 HOH   0.0000 
364 O      -11.1557    31.6878    22.3530 O.3   122 HOH   0.0000 
365 H1     -10.1957    31.6878    22.3530 H     122 HOH   0.0000 
366 H2     -11.4460    32.3349    23.0001 H     122 HOH   0.0000 
367 O       15.3610    16.7857    40.1218 O.3   123 HOH   0.0000 
368 H1      16.3210    16.7857    40.1218 H     123 HOH   0.0000 
369 H2      15.0707    17.4328    40.7688 H     123 HOH   0.0000 
370 O      -26.8135    11.9972    35.0176 O.3   124 HOH   0.0000 
371 H1     -25.8535    11.9972    35.0176 H     124 HOH   0.0000 
372 H2     -27.1038    12.6442    35.6647 H     124 HOH   0.0000 
373 O       -9.5759    -3.0548    31.5778 O.3   125 HOH   0.0000 
374 H1      -8.6159    -3.0548    31.5778 H     125 HOH   0.0000 
375 H2      -9.8661    -2.4078    32.2248 H     125 HOH   0.0000 
376 O       -4.4455    22.8241    24.0388 O.3   126 HOH   0.0000 
377 H1      -3.4855    22.8241    24.0388 H     126 HOH   0.0000 
378 H2      -4.7358    23.4712    24.6859 H     126 HOH   0.0000 
379 O      -23.7566     4.7759    23.1456 O.3   127 HOH   0.0000 
380 H1     -22.7966     4.7759    23.1456 H     127 HOH   0.0000 
381 H2     -24.0469     5.4229    23.7927 H     127 HOH   0.0000 
382 O        4.6465     8.8617    26.3010 O.3   128 HOH   0.0000 
383 H1       5.6065     8.8617    26.3010 H     128 HOH   0.0000 
384 H2       4.3562     9.5087    26.9480 H     128 HOH   0.0000 
385 O       13.9019    36.9894    47.6362 O.3   129 HOH   0.0000 
386 H1      14.8619    36.9894    47.6362 H     129 HOH   0.0000 
387 H2      13.6117    37.6364    48.2833 H     129 HOH   0.0000 
388 O       -8.2282    -3.4116     6.5715 O.3   130 HOH   0.0000 
389 H1      -7.2682    -3.4116     6.5715 H     130 HOH   0.0000 
390 H2      -8.5185    -2.7646     7.2186 H     130 HOH   0.0000 
391 O       -2.5670    32.0775    45.2485 O.3   131 HOH   0.0000 
392 H1      -1.6070    32.0775    45.2485 H     131 HOH   0.0000 
393 H2      -2.8573    32.7245    45.8956 H     131 HOH   0.0000 
394 O      -12.6168    28.2217    48.5076 O.3   132 HOH   0.0000 
395 H1     -11.6568    28.2217    48.5076 H     132 HOH   0.0000 
396 H2     -12.9071    28.8688    49.1546 H     132 HOH   0.0000 
397 O       -0.2614    30.0956    42.7664 O.3   133 HOH   0.0000 
398 H1       0.6986    30.0956    42.7664 H     133 HOH   0.0000 
399 H2      -0.5517    30.7426    43.4135 H     133 HOH   0.0000 
400 O      -26.9715     5.7761    37.0987 O.3   134 HOH   0.0000 
401 H1     -26.0115     5.7761    37.0987 H     134 HOH   0.0000 
402 H2     -27.2618     6.4232    37.7458 H     134 HOH   0.0000 
403 O       -3.1215     7.5658    37.1626 O.3   135 HOH  -0.8340 
404 H1      -3.4835     8.2386    37.7392 H     135 HOH   0.4170 
405 H2      -3.5116     6.7486    37.4729 H     135 HOH   0.4170 
406 O       -6.4960     5.3306    34.4513 O.3   136 HOH   0.0000 
407 H1      -5.5360     5.3306    34.4513 H     136 HOH   0.0000 
408 H2      -6.7863     5.9777    35.0983 H     136 HOH   0.0000 
409 O      -17.5816    13.9676    47.6140 O.3   137 HOH   0.0000 
410 H1     -16.6216    13.9676    47.6140 H     137 HOH   0.0000 
411 H2     -17.8719    14.6146    48.2611 H     137 HOH   0.0000 
412 O       -1.1084    12.0461    26.1657 O.3   138 HOH   0.0000 
413 H1      -0.1484    12.0461    26.1657 H     138 HOH   0.0000 
414 H2      -1.3986    12.6931    26.8127 H     138 HOH   0.0000 
415 O      -16.0391     8.6588    14.6311 O.3   139 HOH   0.0000 
416 H1     -15.0791     8.6588    14.6311 H     139 HOH   0.0000 
417 H2     -16.3294     9.3059    15.2782 H     139 HOH   0.0000 
418 O       -5.9975     3.1663    32.6934 O.3   140 HOH   0.0000 
419 H1      -5.0375     3.1663    32.6934 H     140 HOH   0.0000 
420 H2      -6.2877     3.8134    33.3405 H     140 HOH   0.0000 
421 O      -13.9123    18.8885    49.0570 O.3   141 HOH   0.0000 
422 H1     -12.9523    18.8885    49.0570 H     141 HOH   0.0000 
423 H2     -14.2025    19.5355    49.7041 H     141 HOH   0.0000 
424 O       -6.0451    23.7132    16.4400 O.3   142 HOH   0.0000 
425 H1      -5.0851    23.7132    16.4400 H     142 HOH   0.0000 
426 H2      -6.3354    24.3602    17.0871 H     142 HOH   0.0000 
427 O      -18.3804    16.3004    32.7849 O.3   143 HOH   0.0000 
428 H1     -17.4204    16.3004    32.7849 H     143 HOH   0.0000 
429 H2     -18.6706    16.9474    33.4320 H     143 HOH   0.0000 
430 O       -8.1458    22.2629    12.0647 O.3   144 HOH   0.0000 
431 H1      -7.1858    22.2629    12.0647 H     144 HOH   0.0000 
432 H2      -8.4360    22.9100    12.7118 H     144 HOH   0.0000 
433 O        4.4123    19.4685    19.7691 O.3   145 HOH   0.0000 
434 H1       5.3723    19.4685    19.7691 H     145 HOH   0.0000 
435 H2       4.1220    20.1156    20.4162 H     145 HOH   0.0000 
436 O        5.3133    19.5958    37.9353 O.3   146 HOH  -0.8340 
437 H1       4.4840    19.5289    37.4621 H     146 HOH   0.4170 
438 H2       5.3786    20.5201    38.1756 H     146 HOH   0.4170 
439 O      -19.1515    13.2886    15.8493 O.3   147 HOH   0.0000 
440 H1     -18.1915    13.2886    15.8493 H     147 HOH   0.0000 
441 H2     -19.4418    13.9357    16.4964 H     147 HOH   0.0000 
442 O        2.7301    10.3747    24.5576 O.3   148 HOH   0.0000 
443 H1       3.6901    10.3747    24.5576 H     148 HOH   0.0000 
444 H2       2.4398    11.0218    25.2047 H     148 HOH   0.0000 
445 O       -6.6471    -0.1111    30.3742 O.3   149 HOH   0.0000 
446 H1      -5.6871    -0.1111    30.3742 H     149 HOH   0.0000 
447 H2      -6.9374     0.5360    31.0213 H     149 HOH   0.0000 
448 O      -24.1642    13.3696    35.0440 O.3   150 HOH   0.0000 
449 H1     -23.2042    13.3696    35.0440 H     150 HOH   0.0000 
450 H2     -24.4545    14.0167    35.6910 H     150 HOH   0.0000 
451 O      -12.7098    23.3247    51.2722 O.3   151 HOH   0.0000 
452 H1     -11.7498    23.3247    51.2722 H     151 HOH   0.0000 
453 H2     -13.0001    23.9718    51.9193 H     151 HOH   0.0000 
454 O       26.0759    17.1335    39.7350 O.3   152 HOH   0.0000 
455 H1      27.0359    17.1335    39.7350 H     152 HOH   0.0000 
456 H2      25.7857    17.7806    40.3820 H     152 HOH   0.0000 
457 O       -3.0374    11.7239    28.2433 O.3   153 HOH   0.0000 
458 H1      -2.0774    11.7239    28.2433 H     153 HOH   0.0000 
459 H2      -3.3277    12.3709    28.8904 H     153 HOH   0.0000 
460 O       11.5678     9.7149    39.4042 O.3   154 HOH   0.0000 
461 H1      12.5278     9.7149    39.4042 H     154 HOH   0.0000 
462 H2      11.2775    10.3619    40.0512 H     154 HOH   0.0000 
463 O       -7.1525     5.0792    42.2580 O.3   155 HOH   0.0000 
464 H1      -6.1925     5.0792    42.2580 H     155 HOH   0.0000 
465 H2      -7.4428     5.7263    42.9050 H     155 HOH   0.0000 
466 O      -11.0560    22.5504    11.7943 O.3   156 HOH   0.0000 
467 H1     -10.0960    22.5504    11.7943 H     156 HOH   0.0000 
468 H2     -11.3463    23.1975    12.4413 H     156 HOH   0.0000 
469 O        4.1331    13.6296    56.1126 O.3   157 HOH   0.0000 
470 H1       5.0931    13.6296    56.1126 H     157 HOH   0.0000 
471 H2       3.8429    14.2766    56.7597 H     157 HOH   0.0000 
472 O       -0.6957    11.4417    30.0065 O.3   158 HOH   0.0000 
473 H1       0.2643    11.4417    30.0065 H     158 HOH   0.0000 
474 H2      -0.9860    12.0887    30.6535 H     158 HOH   0.0000 
475 O       15.7858    22.4801    50.8765 O.3   159 HOH   0.0000 
476 H1      16.7458    22.4801    50.8765 H     159 HOH   0.0000 
477 H2      15.4955    23.1271    51.5236 H     159 HOH   0.0000 
478 O       17.7835    21.6723    41.2913 O.3   160 HOH   0.0000 
479 H1      18.7435    21.6723    41.2913 H     160 HOH   0.0000 
480 H2      17.4932    22.3194    41.9384 H     160 HOH   0.0000 
481 O        3.1280    22.4234    53.8247 O.3   161 HOH   0.0000 
482 H1       4.0880    22.4234    53.8247 H     161 HOH   0.0000 
483 H2       2.8377    23.0704    54.4718 H     161 HOH   0.0000 
484 O       20.2135    25.0373    47.7413 O.3   162 HOH   0.0000 
485 H1      21.1735    25.0373    47.7413 H     162 HOH   0.0000 
486 H2      19.9232    25.6843    48.3884 H     162 HOH   0.0000 
487 O      -15.3938    25.8914    42.7451 O.3   163 HOH   0.0000 
488 H1     -14.4338    25.8914    42.7451 H     163 HOH   0.0000 
489 H2     -15.6841    26.5385    43.3922 H     163 HOH   0.0000 
490 O      -16.8135    18.1386    15.4985 O.3   164 HOH   0.0000 
491 H1     -15.8535    18.1386    15.4985 H     164 HOH   0.0000 
492 H2     -17.1038    18.7856    16.1456 H     164 HOH   0.0000 
493 O        6.6332    16.5618    23.8037 O.3   165 HOH   0.0000 
494 H1       7.5932    16.5618    23.8037 H     165 HOH   0.0000 
495 H2       6.3429    17.2089    24.4507 H     165 HOH   0.0000 
496 O        2.2363    29.2761    24.3761 O.3   166 HOH   0.0000 
497 H1       3.1963    29.2761    24.3761 H     166 HOH   0.0000 
498 H2       1.9460    29.9232    25.0232 H     166 HOH   0.0000 
499 O       -1.8741    -4.3861    17.1502 O.3   167 HOH   0.0000 
500 H1      -0.9141    -4.3861    17.1502 H     167 HOH   0.0000 
501 H2      -2.1644    -3.7390    17.7973 H     167 HOH   0.0000 
502 O      -22.8894     1.9101    36.1107 O.3   168 HOH   0.0000 
503 H1     -21.9294     1.9101    36.1107 H     168 HOH   0.0000 
504 H2     -23.1796     2.5572    36.7577 H     168 HOH   0.0000 
505 O        8.9176     6.4161    36.8806 O.3   169 HOH   0.0000 
506 H1       9.8776     6.4161    36.8806 H     169 HOH   0.0000 
507 H2       8.6273     7.0631    37.5277 H     169 HOH   0.0000 
508 O       22.0566    26.0333    24.5063 O.3   170 HOH   0.0000 
509 H1      23.0166    26.0333    24.5063 H     170 HOH   0.0000 
510 H2      21.7663    26.6803    25.1533 H     170 HOH   0.0000 
511 O        1.3912    38.2444    36.6301 O.3   171 HOH   0.0000 
512 H1       2.3512    38.2444    36.6301 H     171 HOH   0.0000 
513 H2       1.1009    38.8915    37.2771 H     171 HOH   0.0000 
514 O       19.1764    15.3438    24.6264 O.3   172 HOH   0.0000 
515 H1      20.1364    15.3438    24.6264 H     172 HOH   0.0000 
516 H2      18.8861    15.9909    25.2734 H     172 HOH   0.0000 
517 O      -17.6555    -2.2102    28.7539 O.3   173 HOH   0.0000 
518 H1     -16.6955    -2.2102    28.7539 H     173 HOH   0.0000 
519 H2     -17.9457    -1.5632    29.4010 H     173 HOH   0.0000 
520 O       -3.6371     4.9250    38.3936 O.3   174 HOH   0.0000 
521 H1      -2.6771     4.9250    38.3936 H     174 HOH   0.0000 
522 H2      -3.9274     5.5720    39.0407 H     174 HOH   0.0000 
523 O       -0.6540    29.4300    45.7854 O.3   175 HOH   0.0000 
524 H1       0.3060    29.4300    45.7854 H     175 HOH   0.0000 
525 H2      -0.9443    30.0771    46.4325 H     175 HOH   0.0000 
526 O      -30.0188     5.7266    36.4485 O.3   176 HOH   0.0000 
527 H1     -29.0588     5.7266    36.4485 H     176 HOH   0.0000 
528 H2     -30.3091     6.3737    37.0955 H     176 HOH   0.0000 
529 O        8.0475    34.0724    30.6752 O.3   177 HOH   0.0000 
530 H1       9.0075    34.0724    30.6752 H     177 HOH   0.0000 
531 H2       7.7572    34.7195    31.3222 H     177 HOH   0.0000 
532 O       10.8519    25.8504    56.6338 O.3   178 HOH   0.0000 
533 H1      11.8119    25.8504    56.6338 H     178 HOH   0.0000 
534 H2      10.5617    26.4975    57.2808 H     178 HOH   0.0000 
535 O      -11.3789     1.2730    36.3688 O.3   179 HOH   0.0000 
536 H1     -10.4189     1.2730    36.3688 H     179 HOH   0.0000 
537 H2     -11.6692     1.9201    37.0158 H     179 HOH   0.0000 
538 O      -14.9229     4.2823    43.0846 O.3   180 HOH   0.0000 
539 H1     -13.9629     4.2823    43.0846 H     180 HOH   0.0000 
540 H2     -15.2132     4.9293    43.7317 H     180 HOH   0.0000 
541 O      -26.7336    18.3462    30.6988 O.3   181 HOH   0.0000 
542 H1     -25.7736    18.3462    30.6988 H     181 HOH   0.0000 
543 H2     -27.0239    18.9933    31.3458 H     181 HOH   0.0000 
544 O       13.1221     9.8970    31.9828 O.3   182 HOH   0.0000 
545 H1      14.0821     9.8970    31.9828 H     182 HOH   0.0000 
546 H2      12.8318    10.5440    32.6298 H     182 HOH   0.0000 
547 O      -14.5639     4.5270     7.8594 O.3   183 HOH   0.0000 
548 H1     -13.6039     4.5270     7.8594 H     183 HOH   0.0000 
549 H2     -14.8542     5.1740     8.5065 H     183 HOH   0.0000 
550 O       -3.4359    27.5994    45.0325 O.3   184 HOH   0.0000 
551 H1      -2.4759    27.5994    45.0325 H     184 HOH   0.0000 
552 H2      -3.7262    28.2465    45.6796 H     184 HOH   0.0000 
553 O       10.3231    31.0932    23.0589 O.3   185 HOH   0.0000 
554 H1      11.2831    31.0932    23.0589 H     185 HOH   0.0000 
555 H2      10.0328    31.7403    23.7060 H     185 HOH   0.0000 
556 O      -12.7344    14.4503     7.1085 O.3   186 HOH   0.0000 
557 H1     -11.7744    14.4503     7.1085 H     186 HOH   0.0000 
558 H2     -13.0247    15.0974     7.7555 H     186 HOH   0.0000 
559 O       -0.2616    19.2178    13.3204 O.3   187 HOH   0.0000 
560 H1       0.6984    19.2178    13.3204 H     187 HOH   0.0000 
561 H2      -0.5519    19.8649    13.9674 H     187 HOH   0.0000 
562 O       22.2332    19.2579    26.5395 O.3   188 HOH   0.0000 
563 H1      23.1932    19.2579    26.5395 H     188 HOH   0.0000 
564 H2      21.9429    19.9049    27.1865 H     188 HOH   0.0000 
565 O       18.5893    24.8484    41.7385 O.3   189 HOH   0.0000 
566 H1      19.5493    24.8484    41.7385 H     189 HOH   0.0000 
567 H2      18.2990    25.4955    42.3856 H     189 HOH   0.0000 
568 O      -19.0727    23.8393    44.5644 O.3   190 HOH   0.0000 
569 H1     -18.1127    23.8393    44.5644 H     190 HOH   0.0000 
570 H2     -19.3629    24.4863    45.2114 H     190 HOH   0.0000 
571 O       10.9468    16.2107    24.5623 O.3   191 HOH   0.0000 
572 H1      11.9068    16.2107    24.5623 H     191 HOH   0.0000 
573 H2      10.6566    16.8577    25.2094 H     191 HOH   0.0000 
574 O       15.9856    34.6164    41.2704 O.3   192 HOH   0.0000 
575 H1      16.9456    34.6164    41.2704 H     192 HOH   0.0000 
576 H2      15.6954    35.2635    41.9174 H     192 HOH   0.0000 
577 O        8.0014    33.3288    41.0295 O.3   193 HOH   0.0000 
578 H1       8.9614    33.3288    41.0295 H     193 HOH   0.0000 
579 H2       7.7111    33.9758    41.6765 H     193 HOH   0.0000 
580 O        9.5373    13.9359    27.4086 O.3   194 HOH   0.0000 
581 H1      10.4973    13.9359    27.4086 H     194 HOH   0.0000 
582 H2       9.2470    14.5829    28.0557 H     194 HOH   0.0000 
583 O        5.3928     6.5818    11.8589 O.3   195 HOH   0.0000 
584 H1       6.3528     6.5818    11.8589 H     195 HOH   0.0000 
585 H2       5.1025     7.2289    12.5060 H     195 HOH   0.0000 
586 O        6.2256    17.7885    15.7458 O.3   196 HOH   0.0000 
587 H1       7.1856    17.7885    15.7458 H     196 HOH   0.0000 
588 H2       5.9354    18.4356    16.3929 H     196 HOH   0.0000 
589 O      -25.7941     6.9223    22.5344 O.3   197 HOH   0.0000 
590 H1     -24.8341     6.9223    22.5344 H     197 HOH   0.0000 
591 H2     -26.0844     7.5694    23.1815 H     197 HOH   0.0000 
592 O        5.3534    33.2173    58.3721 O.3   198 HOH   0.0000 
593 H1       6.3134    33.2173    58.3721 H     198 HOH   0.0000 
594 H2       5.0631    33.8644    59.0192 H     198 HOH   0.0000 
595 O       -6.9612    10.9007    46.9101 O.3   199 HOH   0.0000 
596 H1      -6.0012    10.9007    46.9101 H     199 HOH   0.0000 
597 H2      -7.2515    11.5478    47.5572 H     199 HOH   0.0000 
598 O      -16.5650    18.3353    11.7876 O.3   200 HOH   0.0000 
599 H1     -15.6050    18.3353    11.7876 H     200 HOH   0.0000 
600 H2     -16.8553    18.9824    12.4347 H     200 HOH   0.0000 
601 O       -6.6120   -10.8439    23.5371 O.3   201 HOH   0.0000 
602 H1      -5.6520   -10.8439    23.5371 H     201 HOH   0.0000 
603 H2      -6.9023   -10.1969    24.1841 H     201 HOH   0.0000 
604 O       10.9594    -4.0944    19.8824 O.3   202 HOH   0.0000 
605 H1      11.9194    -4.0944    19.8824 H     202 HOH   0.0000 
606 H2      10.6692    -3.4473    20.5294 H     202 HOH   0.0000 
607 O        2.9386    26.6601    54.5274 O.3   203 HOH   0.0000 
608 H1       3.8986    26.6601    54.5274 H     203 HOH   0.0000 
609 H2       2.6483    27.3072    55.1745 H     203 HOH   0.0000 
610 O       -0.6733    20.5415    53.7350 O.3   204 HOH   0.0000 
611 H1       0.2867    20.5415    53.7350 H     204 HOH   0.0000 
612 H2      -0.9635    21.1886    54.3820 H     204 HOH   0.0000 
613 O        3.9388    22.4965    33.0849 O.3   205 HOH  -0.8340 
614 H1       4.6186    23.0828    32.7528 H     205 HOH   0.4170 
615 H2       3.4389    22.2446    32.3084 H     205 HOH   0.4170 
616 O      -13.2239     6.7924     9.2952 O.3   206 HOH   0.0000 
617 H1     -12.2639     6.7924     9.2952 H     206 HOH   0.0000 
618 H2     -13.5142     7.4394     9.9423 H     206 HOH   0.0000 
619 O      -18.8423    16.0581    14.7994 O.3   207 HOH   0.0000 
620 H1     -17.8823    16.0581    14.7994 H     207 HOH   0.0000 
621 H2     -19.1326    16.7051    15.4464 H     207 HOH   0.0000 
622 O       -7.2476    24.4451    13.8710 O.3   208 HOH   0.0000 
623 H1      -6.2876    24.4451    13.8710 H     208 HOH   0.0000 
624 H2      -7.5379    25.0922    14.5181 H     208 HOH   0.0000 
625 O       22.8867    24.9456    21.6056 O.3   209 HOH   0.0000 
626 H1      23.8467    24.9456    21.6056 H     209 HOH   0.0000 
627 H2      22.5964    25.5926    22.2526 H     209 HOH   0.0000 
628 O        2.8689    20.0906    16.9430 O.3   210 HOH   0.0000 
629 H1       3.8289    20.0906    16.9430 H     210 HOH   0.0000 
630 H2       2.5786    20.7376    17.5900 H     210 HOH   0.0000 
631 O       -2.3590    26.2321    47.4408 O.3   211 HOH   0.0000 
632 H1      -1.3990    26.2321    47.4408 H     211 HOH   0.0000 
633 H2      -2.6493    26.8792    48.0879 H     211 HOH   0.0000 
634 O       20.1789    25.1286    44.4523 O.3   212 HOH   0.0000 
635 H1      21.1389    25.1286    44.4523 H     212 HOH   0.0000 
636 H2      19.8886    25.7756    45.0993 H     212 HOH   0.0000 
637 O      -22.0614    12.0769    33.1806 O.3   213 HOH   0.0000 
638 H1     -21.1014    12.0769    33.1806 H     213 HOH   0.0000 
639 H2     -22.3516    12.7239    33.8277 H     213 HOH   0.0000 
640 O       -3.5287    -3.2443    12.5649 O.3   214 HOH   0.0000 
641 H1      -2.5687    -3.2443    12.5649 H     214 HOH   0.0000 
642 H2      -3.8190    -2.5972    13.2120 H     214 HOH   0.0000 
643 O       -7.3562    -2.8572    29.2632 O.3   215 HOH   0.0000 
644 H1      -6.3962    -2.8572    29.2632 H     215 HOH   0.0000 
645 H2      -7.6465    -2.2102    29.9102 H     215 HOH   0.0000 
646 O       10.4835    11.7574    29.3826 O.3   216 HOH   0.0000 
647 H1      11.4435    11.7574    29.3826 H     216 HOH   0.0000 
648 H2      10.1933    12.4045    30.0297 H     216 HOH   0.0000 
649 O       23.2987    26.6917    28.5185 O.3   217 HOH   0.0000 
650 H1      24.2587    26.6917    28.5185 H     217 HOH   0.0000 
651 H2      23.0084    27.3388    29.1655 H     217 HOH   0.0000 
652 O        4.9651    33.3394    40.3073 O.3   218 HOH   0.0000 
653 H1       5.9251    33.3394    40.3073 H     218 HOH   0.0000 
654 H2       4.6748    33.9865    40.9543 H     218 HOH   0.0000 
655 O       19.0256    34.0629    40.5042 O.3   219 HOH   0.0000 
656 H1      19.9856    34.0629    40.5042 H     219 HOH   0.0000 
657 H2      18.7354    34.7100    41.1513 H     219 HOH   0.0000 
658 O       -3.3654    30.8427    42.3643 O.3   220 HOH   0.0000 
659 H1      -2.4054    30.8427    42.3643 H     220 HOH   0.0000 
660 H2      -3.6557    31.4898    43.0114 H     220 HOH   0.0000 
661 O       -4.3526     5.1526    41.2358 O.3   221 HOH   0.0000 
662 H1      -3.3926     5.1526    41.2358 H     221 HOH   0.0000 
663 H2      -4.6429     5.7997    41.8828 H     221 HOH   0.0000 
664 O        2.5943     7.3351    38.1421 O.3   222 HOH  -0.8340 
665 H1       2.8397     8.0262    38.7573 H     222 HOH   0.4170 
666 H2       2.3809     6.5848    38.6967 H     222 HOH   0.4170 
667 O       10.4221    34.9573    32.4103 O.3   223 HOH   0.0000 
668 H1      11.3821    34.9573    32.4103 H     223 HOH   0.0000 
669 H2      10.1318    35.6043    33.0573 H     223 HOH   0.0000 
670 O      -19.3784     2.0316    30.3357 O.3   224 HOH   0.0000 
671 H1     -18.4184     2.0316    30.3357 H     224 HOH   0.0000 
672 H2     -19.6687     2.6786    30.9827 H     224 HOH   0.0000 
673 O      -12.3473     2.4189     8.5352 O.3   225 HOH   0.0000 
674 H1     -11.3873     2.4189     8.5352 H     225 HOH   0.0000 
675 H2     -12.6376     3.0660     9.1822 H     225 HOH   0.0000 
676 O      -29.0192    25.3242    24.0733 O.3   226 HOH   0.0000 
677 H1     -28.0592    25.3242    24.0733 H     226 HOH   0.0000 
678 H2     -29.3095    25.9713    24.7204 H     226 HOH   0.0000 
679 O       16.1644    24.3241    53.1617 O.3   227 HOH   0.0000 
680 H1      17.1244    24.3241    53.1617 H     227 HOH   0.0000 
681 H2      15.8741    24.9711    53.8087 H     227 HOH   0.0000 
682 O      -22.1419     3.6176    20.9621 O.3   228 HOH   0.0000 
683 H1     -21.1819     3.6176    20.9621 H     228 HOH   0.0000 
684 H2     -22.4322     4.2646    21.6092 H     228 HOH   0.0000 
685 O      -18.9722     8.7811    15.3292 O.3   229 HOH   0.0000 
686 H1     -18.0122     8.7811    15.3292 H     229 HOH   0.0000 
687 H2     -19.2625     9.4282    15.9763 H     229 HOH   0.0000 
688 O       17.0030    30.4245    27.7890 O.3   230 HOH   0.0000 
689 H1      17.9630    30.4245    27.7890 H     230 HOH   0.0000 
690 H2      16.7128    31.0715    28.4361 H     230 HOH   0.0000 
691 O       14.2521    -1.0233    16.7330 O.3   231 HOH   0.0000 
692 H1      15.2121    -1.0233    16.7330 H     231 HOH   0.0000 
693 H2      13.9619    -0.3763    17.3801 H     231 HOH   0.0000 
694 O        2.2447    24.7575    36.3113 O.3   232 HOH   0.0000 
695 H1       3.2047    24.7575    36.3113 H     232 HOH   0.0000 
696 H2       1.9544    25.4045    36.9583 H     232 HOH   0.0000 
697 O        1.6549    17.0752    14.3307 O.3   233 HOH   0.0000 
698 H1       2.6149    17.0752    14.3307 H     233 HOH   0.0000 
699 H2       1.3646    17.7223    14.9778 H     233 HOH   0.0000 
700 O       -8.6884    14.3927    48.3102 O.3   234 HOH   0.0000 
701 H1      -7.7284    14.3927    48.3102 H     234 HOH   0.0000 
702 H2      -8.9787    15.0398    48.9573 H     234 HOH   0.0000 
703 O       -4.5538    32.5728    19.4324 O.3   235 HOH   0.0000 
704 H1      -3.5938    32.5728    19.4324 H     235 HOH   0.0000 
705 H2      -4.8441    33.2198    20.0794 H     235 HOH   0.0000 
706 O        7.4038    12.0015    26.5007 O.3   236 HOH   0.0000 
707 H1       8.3638    12.0015    26.5007 H     236 HOH   0.0000 
708 H2       7.1135    12.6485    27.1477 H     236 HOH   0.0000 
709 O        5.9482     7.3691    14.8255 O.3   237 HOH   0.0000 
710 H1       6.9082     7.3691    14.8255 H     237 HOH   0.0000 
711 H2       5.6579     8.0161    15.4725 H     237 HOH   0.0000 
712 O      -22.3100     9.2890    34.2749 O.3   238 HOH   0.0000 
713 H1     -21.3500     9.2890    34.2749 H     238 HOH   0.0000 
714 H2     -22.6002     9.9360    34.9219 H     238 HOH   0.0000 
715 O       -5.2172    -1.0634     9.3657 O.3   239 HOH   0.0000 
716 H1      -4.2572    -1.0634     9.3657 H     239 HOH   0.0000 
717 H2      -5.5074    -0.4164    10.0127 H     239 HOH   0.0000 
718 O        2.4283    24.9670    19.6549 O.3   240 HOH   0.0000 
719 H1       3.3883    24.9670    19.6549 H     240 HOH   0.0000 
720 H2       2.1380    25.6140    20.3020 H     240 HOH   0.0000 
721 O        5.2734    25.4844    24.1019 O.3   241 HOH   0.0000 
722 H1       6.2334    25.4844    24.1019 H     241 HOH   0.0000 
723 H2       4.9832    26.1314    24.7489 H     241 HOH   0.0000 
724 O        5.4635    35.5643    36.0310 O.3   242 HOH   0.0000 
725 H1       6.4235    35.5643    36.0310 H     242 HOH   0.0000 
726 H2       5.1732    36.2113    36.6780 H     242 HOH   0.0000 
727 O       16.7483     8.5518    23.8861 O.3   243 HOH   0.0000 
728 H1      17.7083     8.5518    23.8861 H     243 HOH   0.0000 
729 H2      16.4580     9.1989    24.5331 H     243 HOH   0.0000 
730 O      -19.4452     4.0231    19.7684 O.3   244 HOH   0.0000 
731 H1     -18.4852     4.0231    19.7684 H     244 HOH   0.0000 
732 H2     -19.7354     4.6702    20.4154 H     244 HOH   0.0000 
@<TRIPOS>BOND
  1   1   2  1   
  2   1   3  1   
  3   4   5  1   
  4   4   6  1   
  5   7   8  1   
  6   7   9  1   
  7  10  11  1   
  8  10  12  1   
  9  13  14  1   
 10  13  15  1   
 11  16  17  1   
 12  16  18  1   
 13  19  20  1   
 14  19  21  1   
 15  22  23  1   
 16  22  24  1   
 17  25  26  1   
 18  25  27  1   
 19  28  29  1   
 20  28  30  1   
 21  31  32  1   
 22  31  33  1   
 23  34  35  1   
 24  34  36  1   
 25  37  38  1   
 26  37  39  1   
 27  40  41  1   
 28  40  42  1   
 29  43  44  1   
 30  43  45  1   
 31  46  47  1   
 32  46  48  1   
 33  49  50  1   
 34  49  51  1   
 35  52  53  1   
 36  52  54  1   
 37  55  56  1   
 38  55  57  1   
 39  58  59  1   
 40  58  60  1   
 41  61  62  1   
 42  61  63  1   
 43  64  65  1   
 44  64  66  1   
 45  67  68  1   
 46  67  69  1   
 47  70  71  1   
 48  70  72  1   
 49  73  74  1   
 50  73  75  1   
 51  76  77  1   
 52  76  78  1   
 53  79  80  1   
 54  79  81  1   
 55  82  83  1   
 56  82  84  1   
 57  85  86  1   
 58  85  87  1   
 59  88  89  1   
 60  88  90  1   
 61  91  92  1   
 62  91  93  1   
 63  94  95  1   
 64  94  96  1   
 65  97  98  1   
 66  97  99  1   
 67 100 101  1   
 68 100 102  1   
 69 103 104  1   
 70 103 105  1   
 71 106 107  1   
 72 106 108  1   
 73 109 110  1   
 74 109 111  1   
 75 112 113  1   
 76 112 114  1   
 77 115 116  1   
 78 115 117  1   
 79 118 119  1   
 80 118 120  1   
 81 121 122  1   
 82 121 123  1   
 83 124 125  1   
 84 124 126  1   
 85 127 128  1   
 86 127 129  1   
 87 130 131  1   
 88 130 132  1   
 89 133 134  1   
 90 133 135  1   
 91 136 137  1   
 92 136 138  1   
 93 139 140  1   
 94 139 141  1   
 95 142 143  1   
 96 142 144  1   
 97 145 146  1   
 98 145 147  1   
 99 148 149  1   
100 148 150  1   
101 151 152  1   
102 151 153  1   
103 154 155  1   
104 154 156  1   
105 157 158  1   
106 157 159  1   
107 160 161  1   
108 160 162  1   
109 163 164  1   
110 163 165  1   
111 166 167  1   
112 166 168  1   
113 169 170  1   
114 169 171  1   
115 172 173  1   
116 172 174  1   
117 175 176  1   
118 175 177  1   
119 178 179  1   
120 178 180  1   
121 181 182  1   
122 181 183  1   
123 184 185  1   
124 184 186  1   
125 187 188  1   
126 187 189  1   
127 190 191  1   
128 190 192  1   
129 193 194  1   
130 193 195  1   
131 196 197  1   
132 196 198  1   
133 199 200  1   
134 199 201  1   
135 202 203  1   
136 202 204  1   
137 205 206  1   
138 205 207  1   
139 208 209  1   
140 208 210  1   
141 211 212  1   
142 211 213  1   
143 214 215  1   
144 214 216  1   
145 217 218  1   
146 217 219  1   
147 220 221  1   
148 220 222  1   
149 223 224  1   
150 223 225  1   
151 226 227  1   
152 226 228  1   
153 229 230  1   
154 229 231  1   
155 232 233  1   
156 232 234  1   
157 235 236  1   
158 235 237  1   
159 238 239  1   
160 238 240  1   
161 241 242  1   
162 241 243  1   
163 244 245  1   
164 244 246  1   
165 247 248  1   
166 247 249  1   
167 250 251  1   
168 250 252  1   
169 253 254  1   
170 253 255  1   
171 256 257  1   
172 256 258  1   
173 259 260  1   
174 259 261  1   
175 262 263  1   
176 262 264  1   
177 265 266  1   
178 265 267  1   
179 268 269  1   
180 268 270  1   
181 271 272  1   
182 271 273  1   
183 274 275  1   
184 274 276  1   
185 277 278  1   
186 277 279  1   
187 280 281  1   
188 280 282  1   
189 283 284  1   
190 283 285  1   
191 286 287  1   
192 286 288  1   
193 289 290  1   
194 289 291  1   
195 292 293  1   
196 292 294  1   
197 295 296  1   
198 295 297  1   
199 298 299  1   
200 298 300  1   
201 301 302  1   
202 301 303  1   
203 304 305  1   
204 304 306  1   
205 307 308  1   
206 307 309  1   
207 310 311  1   
208 310 312  1   
209 313 314  1   
210 313 315  1   
211 316 317  1   
212 316 318  1   
213 319 320  1   
214 319 321  1   
215 322 323  1   
216 322 324  1   
217 325 326  1   
218 325 327  1   
219 328 329  1   
220 328 330  1   
221 331 332  1   
222 331 333  1   
223 334 335  1   
224 334 336  1   
225 337 338  1   
226 337 339  1   
227 340 341  1   
228 340 342  1   
229 343 344  1   
230 343 345  1   
231 346 347  1   
232 346 348  1   
233 349 350  1   
234 349 351  1   
235 352 353  1   
236 352 354  1   
237 355 356  1   
238 355 357  1   
239 358 359  1   
240 358 360  1   
241 361 362  1   
242 361 363  1   
243 364 365  1   
244 364 366  1   
245 367 368  1   
246 367 369  1   
247 370 371  1   
248 370 372  1   
249 373 374  1   
250 373 375  1   
251 376 377  1   
252 376 378  1   
253 379 380  1   
254 379 381  1   
255 382 383  1   
256 382 384  1   
257 385 386  1   
258 385 387  1   
259 388 389  1   
260 388 390  1   
261 391 392  1   
262 391 393  1   
263 394 395  1   
264 394 396  1   
265 397 398  1   
266 397 399  1   
267 400 401  1   
268 400 402  1   
269 403 404  1   
270 403 405  1   
271 406 407  1   
272 406 408  1   
273 409 410  1   
274 409 411  1   
275 412 413  1   
276 412 414  1   
277 415 416  1   
278 415 417  1   
279 418 419  1   
280 418 420  1   
281 421 422  1   
282 421 423  1   
283 424 425  1   
284 424 426  1   
285 427 428  1   
286 427 429  1   
287 430 431  1   
288 430 432  1   
289 433 434  1   
290 433 435  1   
291 436 437  1   
292 436 438  1   
293 439 440  1   
294 439 441  1   
295 442 443  1   
296 442 444  1   
297 445 446  1   
298 445 447  1   
299 448 449  1   
300 448 450  1   
301 451 452  1   
302 451 453  1   
303 454 455  1   
304 454 456  1   
305 457 458  1   
306 457 459  1   
307 460 461  1   
308 460 462  1   
309 463 464  1   
310 463 465  1   
311 466 467  1   
312 466 468  1   
313 469 470  1   
314 469 471  1   
315 472 473  1   
316 472 474  1   
317 475 476  1   
318 475 477  1   
319 478 479  1   
320 478 480  1   
321 481 482  1   
322 481 483  1   
323 484 485  1   
324 484 486  1   
325 487 488  1   
326 487 489  1   
327 490 491  1   
328 490 492  1   
329 493 494  1   
330 493 495  1   
331 496 497  1   
332 496 498  1   
333 499 500  1   
334 499 501  1   
335 502 503  1   
336 502 504  1   
337 505 506  1   
338 505 507  1   
339 508 509  1   
340 508 510  1   
341 511 512  1   
342 511 513  1   
343 514 515  1   
344 514 516  1   
345 517 518  1   
346 517 519  1   
347 520 521  1   
348 520 522  1   
349 523 524  1   
350 523 525  1   
351 526 527  1   
352 526 528  1   
353 529 530  1   
354 529 531  1   
355 532 533  1   
356 532 534  1   
357 535 536  1   
358 535 537  1   
359 538 539  1   
360 538 540  1   
361 541 542  1   
362 541 543  1   
363 544 545  1   
364 544 546  1   
365 547 548  1   
366 547 549  1   
367 550 551  1   
368 550 552  1   
369 553 554  1   
370 553 555  1   
371 556 557  1   
372 556 558  1   
373 559 560  1   
374 559 561  1   
375 562 563  1   
376 562 564  1   
377 565 566  1   
378 565 567  1   
379 568 569  1   
380 568 570  1   
381 571 572  1   
382 571 573  1   
383 574 575  1   
384 574 576  1   
385 577 578  1   
386 577 579  1   
387 580 581  1   
388 580 582  1   
389 583 584  1   
390 583 585  1   
391 586 587  1   
392 586 588  1   
393 589 590  1   
394 589 591  1   
395 592 593  1   
396 592 594  1   
397 595 596  1   
398 595 597  1   
399 598 599  1   
400 598 600  1   
401 601 602  1   
402 601 603  1   
403 604 605  1   
404 604 606  1   
405 607 608  1   
406 607 609  1   
407 610 611  1   
408 610 612  1   
409 613 614  1   
410 613 615  1   
411 616 617  1   
412 616 618  1   
413 619 620  1   
414 619 621  1   
415 622 623  1   
416 622 624  1   
417 625 626  1   
418 625 627  1   
419 628 629  1   
420 628 630  1   
421 631 632  1   
422 631 633  1   
423 634 635  1   
424 634 636  1   
425 637 638  1   
426 637 639  1   
427 640 641  1   
428 640 642  1   
429 643 644  1   
430 643 645  1   
431 646 647  1   
432 646 648  1   
433 649 650  1   
434 649 651  1   
435 652 653  1   
436 652 654  1   
437 655 656  1   
438 655 657  1   
439 658 659  1   
440 658 660  1   
441 661 662  1   
442 661 663  1   
443 664 665  1   
444 664 666  1   
445 667 668  1   
446 667 669  1   
447 670 671  1   
448 670 672  1   
449 673 674  1   
450 673 675  1   
451 676 677  1   
452 676 678  1   
453 679 680  1   
454 679 681  1   
455 682 683  1   
456 682 684  1   
457 685 686  1   
458 685 687  1   
459 688 689  1   
460 688 690  1   
461 691 692  1   
462 691 693  1   
463 694 695  1   
464 694 696  1   
465 697 698  1   
466 697 699  1   
467 700 701  1   
468 700 702  1   
469 703 704  1   
470 703 705  1   
471 706 707  1   
472 706 708  1   
473 709 710  1   
474 709 711  1   
475 712 713  1   
476 712 714  1   
477 715 716  1   
478 715 717  1   
479 718 719  1   
480 718 720  1   
481 721 722  1   
482 721 723  1   
483 724 725  1   
484 724 726  1   
485 727 728  1   
486 727 729  1   
487 730 731  1   
488 730 732  1   
@<TRIPOS>SUBSTRUCTURE
  1 HOH   1 GROUP 4 A **** 0
  2 HOH   4 GROUP 4 A **** 0
  3 HOH   7 GROUP 4 A **** 0
  4 HOH  10 GROUP 4 A **** 0
  5 HOH  13 GROUP 4 A **** 0
  6 HOH  16 GROUP 4 A **** 0
  7 HOH  19 GROUP 4 A **** 0
  8 HOH  22 GROUP 4 A **** 0
  9 HOH  25 GROUP 4 A **** 0
 10 HOH  28 GROUP 4 A **** 0
 11 HOH  31 GROUP 4 A **** 0
 12 HOH  34 GROUP 4 A **** 0
 13 HOH  37 GROUP 4 A **** 0
 14 HOH  40 GROUP 4 A **** 0
 15 HOH  43 GROUP 4 A **** 0
 16 HOH  46 GROUP 4 A **** 0
 17 HOH  49 GROUP 4 A **** 0
 18 HOH  52 GROUP 4 A **** 0
 19 HOH  55 GROUP 4 A **** 0
 20 HOH  58 GROUP 4 A **** 0
 21 HOH  61 GROUP 4 A **** 0
 22 HOH  64 GROUP 4 A **** 0
 23 HOH  67 GROUP 4 A **** 0
 24 HOH  70 GROUP 4 A **** 0
 25 HOH  73 GROUP 4 A **** 0
 26 HOH  76 GROUP 4 A **** 0
 27 HOH  79 GROUP 4 A **** 0
 28 HOH  82 GROUP 4 A **** 0
 29 HOH  85 GROUP 4 A **** 0
 30 HOH  88 GROUP 4 A **** 0
 31 HOH  91 GROUP 4 A **** 0
 32 HOH  94 GROUP 4 A **** 0
 33 HOH  97 GROUP 4 A **** 0
 34 HOH 100 GROUP 4 A **** 0
 35 HOH 103 GROUP 4 A **** 0
 36 HOH 106 GROUP 4 A **** 0
 37 HOH 109 GROUP 4 A **** 0
 38 HOH 112 GROUP 4 A **** 0
 39 HOH 115 GROUP 4 A **** 0
 40 HOH 118 GROUP 4 A **** 0
 41 HOH 121 GROUP 4 A **** 0
 42 HOH 124 GROUP 4 A **** 0
 43 HOH 127 GROUP 4 A **** 0
 44 HOH 130 GROUP 4 A **** 0
 45 HOH 133 GROUP 4 A **** 0
 46 HOH 136 GROUP 4 A **** 0
 47 HOH 139 GROUP 4 A **** 0
 48 HOH 142 GROUP 4 A **** 0
 49 HOH 145 GROUP 4 A **** 0
 50 HOH 148 GROUP 4 A **** 0
 51 HOH 151 GROUP 4 A **** 0
 52 HOH 154 GROUP 4 A **** 0
 53 HOH 157 GROUP 4 A **** 0
 54 HOH 160 GROUP 4 A **** 0
 55 HOH 163 GROUP 4 A **** 0
 56 HOH 166 GROUP 4 A **** 0
 57 HOH 169 GROUP 4 A **** 0
 58 HOH 172 GROUP 4 A **** 0
 59 HOH 175 GROUP 4 A **** 0
 60 HOH 178 GROUP 4 A **** 0
 61 HOH 181 GROUP 4 A **** 0
 62 HOH 184 GROUP 4 A **** 0
 63 HOH 187 GROUP 4 A **** 0
 64 HOH 190 GROUP 4 A **** 0
 65 HOH 193 GROUP 4 A **** 0
 66 HOH 196 GROUP 4 A **** 0
 67 HOH 199 GROUP 4 A **** 0
 68 HOH 202 GROUP 4 A **** 0
 69 HOH 205 GROUP 4 A **** 0
 70 HOH 208 GROUP 4 A **** 0
 71 HOH 211 GROUP 4 A **** 0
 72 HOH 214 GROUP 4 A **** 0
 73 HOH 217 GROUP 4 A **** 0
 74 HOH 220 GROUP 4 A **** 0
 75 HOH 223 GROUP 4 A **** 0
 76 HOH 226 GROUP 4 A **** 0
 77 HOH 229 GROUP 4 A **** 0
 78 HOH 232 GROUP 4 A **** 0
 79 HOH 235 GROUP 4 A **** 0
 80 HOH 238 GROUP 4 A **** 0
 81 HOH 241 GROUP 4 A **** 0
 82 HOH 244 GROUP 4 A **** 0
 83 HOH 247 GROUP 4 A **** 0
 84 HOH 250 GROUP 4 A **** 0
 85 HOH 253 GROUP 4 A **** 0
 86 HOH 256 GROUP 4 A **** 0
 87 HOH 259 GROUP 4 A **** 0
 88 HOH 262 GROUP 4 A **** 0
 89 HOH 265 GROUP 4 A **** 0
 90 HOH 268 GROUP 4 A **** 0
 91 HOH 271 GROUP 4 A **** 0
 92 HOH 274 GROUP 4 A **** 0
 93 HOH 277 GROUP 4 A **** 0
 94 HOH 280 GROUP 4 A **** 0
 95 HOH 283 GROUP 4 A **** 0
 96 HOH 286 GROUP 4 A **** 0
 97 HOH 289 GROUP 4 A **** 0
 98 HOH 292 GROUP 4 A **** 0
 99 HOH 295 GROUP 4 A **** 0
100 HOH 298 GROUP 4 A **** 0
101 HOH 301 GROUP 4 A **** 0
102 HOH 304 GROUP 4 A **** 0
103 HOH 307 GROUP 4 A **** 0
104 HOH 310 GROUP 4 A **** 0
105 HOH 313 GROUP 4 A **** 0
106 HOH 316 GROUP 4 A **** 0
107 HOH 319 GROUP 4 A **** 0
108 HOH 322 GROUP 4 A **** 0
109 HOH 325 GROUP 4 A **** 0
110 HOH 328 GROUP 4 A **** 0
111 HOH 331 GROUP 4 A **** 0
112 HOH 334 GROUP 4 A **** 0
113 HOH 337 GROUP 4 A **** 0
114 HOH 340 GROUP 4 A **** 0
115 HOH 343 GROUP 4 A **** 0
116 HOH 346 GROUP 4 A **** 0
117 HOH 349 GROUP 4 A **** 0
118 HOH 352 GROUP 4 A **** 0
119 HOH 355 GROUP 4 A **** 0
120 HOH 358 GROUP 4 A **** 0
121 HOH 361 GROUP 4 A **** 0
122 HOH 364 GROUP 4 A **** 0
123 HOH 367 GROUP 4 A **** 0
124 HOH 370 GROUP 4 A **** 0
125 HOH 373 GROUP 4 A **** 0
126 HOH 376 GROUP 4 A **** 0
127 HOH 379 GROUP 4 A **** 0
128 HOH 382 GROUP 4 A **** 0
129 HOH 385 GROUP 4 A **** 0
130 HOH 388 GROUP 4 A **** 0
131 HOH 391 GROUP 4 A **** 0
132 HOH 394 GROUP 4 A **** 0
133 HOH 397 GROUP 4 A **** 0
134 HOH 400 GROUP 4 A **** 0
135 HOH 403 GROUP 4 A **** 0
136 HOH 406 GROUP 4 A **** 0
137 HOH 409 GROUP 4 A **** 0
138 HOH 412 GROUP 4 A **** 0
139 HOH 415 GROUP 4 A **** 0
140 HOH 418 GROUP 4 A **** 0
141 HOH 421 GROUP 4 A **** 0
142 HOH 424 GROUP 4 A **** 0
143 HOH 427 GROUP 4 A **** 0
144 HOH 430 GROUP 4 A **** 0
145 HOH 433 GROUP 4 A **** 0
146 HOH 436 GROUP 4 A **** 0
147 HOH 439 GROUP 4 A **** 0
148 HOH 442 GROUP 4 A **** 0
149 HOH 445 GROUP 4 A **** 0
150 HOH 448 GROUP 4 A **** 0
151 HOH 451 GROUP 4 A **** 0
152 HOH 454 GROUP 4 A **** 0
153 HOH 457 GROUP 4 A **** 0
154 HOH 460 GROUP 4 A **** 0
155 HOH 463 GROUP 4 A **** 0
156 HOH 466 GROUP 4 A **** 0
157 HOH 469 GROUP 4 A **** 0
158 HOH 472 GROUP 4 A **** 0
159 HOH 475 GROUP 4 A **** 0
160 HOH 478 GROUP 4 A **** 0
161 HOH 481 GROUP 4 A **** 0
162 HOH 484 GROUP 4 A **** 0
163 HOH 487 GROUP 4 A **** 0
164 HOH 490 GROUP 4 A **** 0
165 HOH 493 GROUP 4 A **** 0
166 HOH 496 GROUP 4 A **** 0
167 HOH 499 GROUP 4 A **** 0
168 HOH 502 GROUP 4 A **** 0
169 HOH 505 GROUP 4 A **** 0
170 HOH 508 GROUP 4 A **** 0
171 HOH 511 GROUP 4 A **** 0
172 HOH 514 GROUP 4 A **** 0
173 HOH 517 GROUP 4 A **** 0
174 HOH 520 GROUP 4 A **** 0
175 HOH 523 GROUP 4 A **** 0
176 HOH 526 GROUP 4 A **** 0
177 HOH 529 GROUP 4 A **** 0
178 HOH 532 GROUP 4 A **** 0
179 HOH 535 GROUP 4 A **** 0
180 HOH 538 GROUP 4 A **** 0
181 HOH 541 GROUP 4 A **** 0
182 HOH 544 GROUP 4 A **** 0
183 HOH 547 GROUP 4 A **** 0
184 HOH 550 GROUP 4 A **** 0
185 HOH 553 GROUP 4 A **** 0
186 HOH 556 GROUP 4 A **** 0
187 HOH 559 GROUP 4 A **** 0
188 HOH 562 GROUP 4 A **** 0
189 HOH 565 GROUP 4 A **** 0
190 HOH 568 GROUP 4 A **** 0
191 HOH 571 GROUP 4 A **** 0
192 HOH 574 GROUP 4 A **** 0
193 HOH 577 GROUP 4 A **** 0
194 HOH 580 GROUP 4 A **** 0
195 HOH 583 GROUP 4 A **** 0
196 HOH 586 GROUP 4 A **** 0
197 HOH 589 GROUP 4 A **** 0
198 HOH 592 GROUP 4 A **** 0
199 HOH 595 GROUP 4 A **** 0
200 HOH 598 GROUP 4 A **** 0
201 HOH 601 GROUP 4 A **** 0
202 HOH 604 GROUP 4 A **** 0
203 HOH 607 GROUP 4 A **** 0
204 HOH 610 GROUP 4 A **** 0
205 HOH 613 GROUP 4 A **** 0
206 HOH 616 GROUP 4 A **** 0
207 HOH 619 GROUP 4 A **** 0
208 HOH 622 GROUP 4 A **** 0
209 HOH 625 GROUP 4 A **** 0
210 HOH 628 GROUP 4 A **** 0
211 HOH 631 GROUP 4 A **** 0
212 HOH 634 GROUP 4 A **** 0
213 HOH 637 GROUP 4 A **** 0
214 HOH 640 GROUP 4 A **** 0
215 HOH 643 GROUP 4 A **** 0
216 HOH 646 GROUP 4 A **** 0
217 HOH 649 GROUP 4 A **** 0
218 HOH 652 GROUP 4 A **** 0
219 HOH 655 GROUP 4 A **** 0
220 HOH 658 GROUP 4 A **** 0
221 HOH 661 GROUP 4 A **** 0
222 HOH 664 GROUP 4 A **** 0
223 HOH 667 GROUP 4 A **** 0
224 HOH 670 GROUP 4 A **** 0
225 HOH 673 GROUP 4 A **** 0
226 HOH 676 GROUP 4 A **** 0
227 HOH 679 GROUP 4 A **** 0
228 HOH 682 GROUP 4 A **** 0
229 HOH 685 GROUP 4 A **** 0
230 HOH 688 GROUP 4 A **** 0
231 HOH 691 GROUP 4 A **** 0
232 HOH 694 GROUP 4 A **** 0
233 HOH 697 GROUP 4 A **** 0
234 HOH 700 GROUP 4 A **** 0
235 HOH 703 GROUP 4 A **** 0
236 HOH 706 GROUP 4 A **** 0
237 HOH 709 GROUP 4 A **** 0
238 HOH 712 GROUP 4 A **** 0
239 HOH 715 GROUP 4 A **** 0
240 HOH 718 GROUP 4 A **** 0
241 HOH 721 GROUP 4 A **** 0
242 HOH 724 GROUP 4 A **** 0
243 HOH 727 GROUP 4 A **** 0
244 HOH 730 GROUP 4 A **** 0

# MOE 2012.10 (io_trps.svl 2012.10)
