@<TRIPOS>MOLECULE
3cs9.A
297 198 99 0 0 
SMALL
USER_CHARGES


@<TRIPOS>ATOM
  1 O      -11.6907     4.4012    46.3849 O.3    1 HOH   0.0000 
  2 H1     -10.7307     4.4012    46.3849 H      1 HOH   0.0000 
  3 H2     -11.9810     5.0483    47.0320 H      1 HOH   0.0000 
  4 O        4.8908    21.0352    34.2875 O.3    2 HOH  -0.8340 
  5 H1       5.1386    21.9437    34.1160 H      2 HOH   0.4170 
  6 H2       4.1297    20.8841    33.7271 H      2 HOH   0.4170 
  7 O       -6.3025     6.3582    20.9991 O.3    3 HOH   0.0000 
  8 H1      -5.3425     6.3582    20.9991 H      3 HOH   0.0000 
  9 H2      -6.5928     7.0052    21.6461 H      3 HOH   0.0000 
 10 O      -13.1564     4.7455    22.7717 O.3    4 HOH   0.0000 
 11 H1     -12.1964     4.7455    22.7717 H      4 HOH   0.0000 
 12 H2     -13.4467     5.3926    23.4187 H      4 HOH   0.0000 
 13 O      -16.5045    10.9933    12.1787 O.3    5 HOH   0.0000 
 14 H1     -15.5445    10.9933    12.1787 H      5 HOH   0.0000 
 15 H2     -16.7948    11.6403    12.8257 H      5 HOH   0.0000 
 16 O       -4.7536     9.8691    33.4465 O.3    6 HOH   0.0000 
 17 H1      -3.7936     9.8691    33.4465 H      6 HOH   0.0000 
 18 H2      -5.0439    10.5161    34.0935 H      6 HOH   0.0000 
 19 O        4.9188    20.2260    36.9796 O.3    7 HOH  -0.8340 
 20 H1       4.2889    20.3830    37.6829 H      7 HOH   0.4170 
 21 H2       4.6084    20.7677    36.2540 H      7 HOH   0.4170 
 22 O       -4.2316    17.1378    21.5302 O.3    8 HOH   0.0000 
 23 H1      -3.2716    17.1378    21.5302 H      8 HOH   0.0000 
 24 H2      -4.5219    17.7849    22.1772 H      8 HOH   0.0000 
 25 O       -8.4921     6.7319    22.6408 O.3    9 HOH   0.0000 
 26 H1      -7.5321     6.7319    22.6408 H      9 HOH   0.0000 
 27 H2      -8.7823     7.3789    23.2879 H      9 HOH   0.0000 
 28 O       -3.5715    12.5886    26.9677 O.3   10 HOH   0.0000 
 29 H1      -2.6115    12.5886    26.9677 H     10 HOH   0.0000 
 30 H2      -3.8618    13.2356    27.6148 H     10 HOH   0.0000 
 31 O       -6.8251     6.0783    33.6913 O.3   11 HOH   0.0000 
 32 H1      -5.8651     6.0783    33.6913 H     11 HOH   0.0000 
 33 H2      -7.1154     6.7253    34.3383 H     11 HOH   0.0000 
 34 O      -12.5477     4.6643    43.8405 O.3   12 HOH   0.0000 
 35 H1     -11.5877     4.6643    43.8405 H     12 HOH   0.0000 
 36 H2     -12.8380     5.3113    44.4875 H     12 HOH   0.0000 
 37 O       -1.9934     4.5001    26.4243 O.3   13 HOH   0.0000 
 38 H1      -1.0334     4.5001    26.4243 H     13 HOH   0.0000 
 39 H2      -2.2837     5.1471    27.0714 H     13 HOH   0.0000 
 40 O       -5.2064    16.3913    24.8819 O.3   14 HOH   0.0000 
 41 H1      -4.2464    16.3913    24.8819 H     14 HOH   0.0000 
 42 H2      -5.4967    17.0383    25.5290 H     14 HOH   0.0000 
 43 O       -9.6719     2.3559    43.0365 O.3   15 HOH   0.0000 
 44 H1      -8.7119     2.3559    43.0365 H     15 HOH   0.0000 
 45 H2      -9.9622     3.0029    43.6836 H     15 HOH   0.0000 
 46 O       -2.3917     1.2171    17.9906 O.3   16 HOH   0.0000 
 47 H1      -1.4317     1.2171    17.9906 H     16 HOH   0.0000 
 48 H2      -2.6819     1.8642    18.6377 H     16 HOH   0.0000 
 49 O      -12.3044    18.2145    47.3973 O.3   17 HOH   0.0000 
 50 H1     -11.3444    18.2145    47.3973 H     17 HOH   0.0000 
 51 H2     -12.5947    18.8616    48.0444 H     17 HOH   0.0000 
 52 O       -0.2622    21.7216    27.7890 O.3   18 HOH  -0.8340 
 53 H1      -0.3230    21.2520    26.9572 H     18 HOH   0.4170 
 54 H2       0.2547    21.1457    28.3525 H     18 HOH   0.4170 
 55 O      -17.7642     7.5311    18.8263 O.3   19 HOH   0.0000 
 56 H1     -16.8042     7.5311    18.8263 H     19 HOH   0.0000 
 57 H2     -18.0545     8.1781    19.4733 H     19 HOH   0.0000 
 58 O       -5.1706    29.9507    36.0335 O.3   20 HOH   0.0000 
 59 H1      -4.2106    29.9507    36.0335 H     20 HOH   0.0000 
 60 H2      -5.4609    30.5977    36.6805 H     20 HOH   0.0000 
 61 O       -6.3686    16.8179    15.3811 O.3   21 HOH   0.0000 
 62 H1      -5.4086    16.8179    15.3811 H     21 HOH   0.0000 
 63 H2      -6.6589    17.4650    16.0282 H     21 HOH   0.0000 
 64 O       -2.8334     7.6240    33.4314 O.3   22 HOH   0.0000 
 65 H1      -1.8734     7.6240    33.4314 H     22 HOH   0.0000 
 66 H2      -3.1236     8.2710    34.0784 H     22 HOH   0.0000 
 67 O      -11.9010    -3.9909    27.0858 O.3   23 HOH   0.0000 
 68 H1     -10.9410    -3.9909    27.0858 H     23 HOH   0.0000 
 69 H2     -12.1912    -3.3438    27.7328 H     23 HOH   0.0000 
 70 O      -13.1877    23.0164    18.8541 O.3   24 HOH   0.0000 
 71 H1     -12.2277    23.0164    18.8541 H     24 HOH   0.0000 
 72 H2     -13.4780    23.6634    19.5012 H     24 HOH   0.0000 
 73 O       -3.3665    -0.8549    15.6593 O.3   25 HOH   0.0000 
 74 H1      -2.4065    -0.8549    15.6593 H     25 HOH   0.0000 
 75 H2      -3.6567    -0.2079    16.3063 H     25 HOH   0.0000 
 76 O      -13.1614     0.6848     8.7785 O.3   26 HOH   0.0000 
 77 H1     -12.2014     0.6848     8.7785 H     26 HOH   0.0000 
 78 H2     -13.4517     1.3319     9.4255 H     26 HOH   0.0000 
 79 O      -28.3286    11.0051    31.0232 O.3   27 HOH   0.0000 
 80 H1     -27.3686    11.0051    31.0232 H     27 HOH   0.0000 
 81 H2     -28.6189    11.6521    31.6703 H     27 HOH   0.0000 
 82 O       -8.9244    10.6369    47.1451 O.3   28 HOH   0.0000 
 83 H1      -7.9644    10.6369    47.1451 H     28 HOH   0.0000 
 84 H2      -9.2146    11.2839    47.7922 H     28 HOH   0.0000 
 85 O        0.8201     4.4378    25.5793 O.3   29 HOH   0.0000 
 86 H1       1.7801     4.4378    25.5793 H     29 HOH   0.0000 
 87 H2       0.5298     5.0849    26.2263 H     29 HOH   0.0000 
 88 O      -16.7089     7.9811    14.0768 O.3   30 HOH   0.0000 
 89 H1     -15.7489     7.9811    14.0768 H     30 HOH   0.0000 
 90 H2     -16.9992     8.6281    14.7238 H     30 HOH   0.0000 
 91 O        0.1158    12.4495    37.8100 O.3   31 HOH   0.0000 
 92 H1       1.0758    12.4495    37.8100 H     31 HOH   0.0000 
 93 H2      -0.1745    13.0966    38.4571 H     31 HOH   0.0000 
 94 O       -4.3136     5.3309    33.6586 O.3   32 HOH   0.0000 
 95 H1      -3.3536     5.3309    33.6586 H     32 HOH   0.0000 
 96 H2      -4.6039     5.9779    34.3057 H     32 HOH   0.0000 
 97 O      -14.1196     5.1799    13.4149 O.3   33 HOH   0.0000 
 98 H1     -13.1596     5.1799    13.4149 H     33 HOH   0.0000 
 99 H2     -14.4098     5.8269    14.0619 H     33 HOH   0.0000 
100 O        8.9814    14.4815    29.7141 O.3   34 HOH   0.0000 
101 H1       9.9414    14.4815    29.7141 H     34 HOH   0.0000 
102 H2       8.6911    15.1286    30.3612 H     34 HOH   0.0000 
103 O        6.0736    17.8246    36.7359 O.3   35 HOH  -0.8340 
104 H1       6.0774    17.5743    35.8120 H     35 HOH   0.4170 
105 H2       5.7763    18.7345    36.7368 H     35 HOH   0.4170 
106 O        7.7890    14.6727    42.1078 O.3   36 HOH   0.0000 
107 H1       8.7490    14.6727    42.1078 H     36 HOH   0.0000 
108 H2       7.4987    15.3198    42.7549 H     36 HOH   0.0000 
109 O      -12.7714    -1.5908    25.7509 O.3   37 HOH   0.0000 
110 H1     -11.8114    -1.5908    25.7509 H     37 HOH   0.0000 
111 H2     -13.0616    -0.9437    26.3979 H     37 HOH   0.0000 
112 O      -12.2872    16.1637     9.9789 O.3   38 HOH   0.0000 
113 H1     -11.3272    16.1637     9.9789 H     38 HOH   0.0000 
114 H2     -12.5775    16.8108    10.6260 H     38 HOH   0.0000 
115 O       -4.0251    14.8879    22.8318 O.3   39 HOH   0.0000 
116 H1      -3.0651    14.8879    22.8318 H     39 HOH   0.0000 
117 H2      -4.3153    15.5350    23.4788 H     39 HOH   0.0000 
118 O       -6.4523     9.3534    11.4010 O.3   40 HOH   0.0000 
119 H1      -5.4923     9.3534    11.4010 H     40 HOH   0.0000 
120 H2      -6.7426    10.0005    12.0480 H     40 HOH   0.0000 
121 O       -0.8041    27.3759    47.0900 O.3   41 HOH   0.0000 
122 H1       0.1559    27.3759    47.0900 H     41 HOH   0.0000 
123 H2      -1.0943    28.0229    47.7370 H     41 HOH   0.0000 
124 O      -19.2504    19.2190    45.2171 O.3   42 HOH   0.0000 
125 H1     -18.2904    19.2190    45.2171 H     42 HOH   0.0000 
126 H2     -19.5407    19.8660    45.8641 H     42 HOH   0.0000 
127 O       -4.6515    12.6176    44.5278 O.3   43 HOH   0.0000 
128 H1      -3.6915    12.6176    44.5278 H     43 HOH   0.0000 
129 H2      -4.9418    13.2646    45.1749 H     43 HOH   0.0000 
130 O      -27.1935    18.7383    28.0219 O.3   44 HOH   0.0000 
131 H1     -26.2335    18.7383    28.0219 H     44 HOH   0.0000 
132 H2     -27.4838    19.3854    28.6689 H     44 HOH   0.0000 
133 O       -1.6820    30.5997    35.6071 O.3   45 HOH   0.0000 
134 H1      -0.7220    30.5997    35.6071 H     45 HOH   0.0000 
135 H2      -1.9722    31.2467    36.2541 H     45 HOH   0.0000 
136 O        2.3221    10.7543    15.7793 O.3   46 HOH   0.0000 
137 H1       3.2821    10.7543    15.7793 H     46 HOH   0.0000 
138 H2       2.0319    11.4014    16.4264 H     46 HOH   0.0000 
139 O       10.2998    32.5600    29.9730 O.3   47 HOH   0.0000 
140 H1      11.2598    32.5600    29.9730 H     47 HOH   0.0000 
141 H2      10.0095    33.2071    30.6201 H     47 HOH   0.0000 
142 O        8.6800    34.7126    29.9021 O.3   48 HOH   0.0000 
143 H1       9.6400    34.7126    29.9021 H     48 HOH   0.0000 
144 H2       8.3897    35.3597    30.5491 H     48 HOH   0.0000 
145 O      -12.6406     4.9335     9.5166 O.3   49 HOH   0.0000 
146 H1     -11.6806     4.9335     9.5166 H     49 HOH   0.0000 
147 H2     -12.9309     5.5806    10.1636 H     49 HOH   0.0000 
148 O        8.1442    23.5241    27.1649 O.3   50 HOH  -0.8340 
149 H1       8.0331    22.6611    27.5638 H     50 HOH   0.4170 
150 H2       8.8103    23.9529    27.7021 H     50 HOH   0.4170 
151 O       -4.8070    -9.1523    15.5481 O.3   51 HOH   0.0000 
152 H1      -3.8470    -9.1523    15.5481 H     51 HOH   0.0000 
153 H2      -5.0973    -8.5052    16.1951 H     51 HOH   0.0000 
154 O      -15.9058    21.4522    13.4880 O.3   52 HOH   0.0000 
155 H1     -14.9458    21.4522    13.4880 H     52 HOH   0.0000 
156 H2     -16.1961    22.0993    14.1351 H     52 HOH   0.0000 
157 O      -13.2801    11.1823    49.2536 O.3   53 HOH   0.0000 
158 H1     -12.3201    11.1823    49.2536 H     53 HOH   0.0000 
159 H2     -13.5704    11.8293    49.9006 H     53 HOH   0.0000 
160 O       -8.3211    -1.0305    10.5929 O.3   54 HOH   0.0000 
161 H1      -7.3611    -1.0305    10.5929 H     54 HOH   0.0000 
162 H2      -8.6113    -0.3835    11.2399 H     54 HOH   0.0000 
163 O      -12.3272    25.4804    46.4973 O.3   55 HOH   0.0000 
164 H1     -11.3672    25.4804    46.4973 H     55 HOH   0.0000 
165 H2     -12.6175    26.1275    47.1444 H     55 HOH   0.0000 
166 O      -10.5511     2.8066    40.6022 O.3   56 HOH   0.0000 
167 H1      -9.5911     2.8066    40.6022 H     56 HOH   0.0000 
168 H2     -10.8413     3.4537    41.2492 H     56 HOH   0.0000 
169 O       -0.9530    25.8525    21.6046 O.3   57 HOH   0.0000 
170 H1       0.0070    25.8525    21.6046 H     57 HOH   0.0000 
171 H2      -1.2432    26.4995    22.2517 H     57 HOH   0.0000 
172 O       -0.9170     7.3354    34.8461 O.3   58 HOH   0.0000 
173 H1       0.0430     7.3354    34.8461 H     58 HOH   0.0000 
174 H2      -1.2073     7.9825    35.4932 H     58 HOH   0.0000 
175 O       14.2079    35.6614    39.9369 O.3   59 HOH   0.0000 
176 H1      15.1679    35.6614    39.9369 H     59 HOH   0.0000 
177 H2      13.9177    36.3085    40.5839 H     59 HOH   0.0000 
178 O        0.2349    19.1261    15.0462 O.3   60 HOH   0.0000 
179 H1       1.1949    19.1261    15.0462 H     60 HOH   0.0000 
180 H2      -0.0554    19.7731    15.6932 H     60 HOH   0.0000 
181 O       -7.6064    23.1891    23.6509 O.3   61 HOH   0.0000 
182 H1      -6.6464    23.1891    23.6509 H     61 HOH   0.0000 
183 H2      -7.8967    23.8361    24.2979 H     61 HOH   0.0000 
184 O       -8.0037    24.3404    46.9112 O.3   62 HOH   0.0000 
185 H1      -7.0437    24.3404    46.9112 H     62 HOH   0.0000 
186 H2      -8.2940    24.9874    47.5582 H     62 HOH   0.0000 
187 O       -4.0048     5.6336    43.5246 O.3   63 HOH   0.0000 
188 H1      -3.0448     5.6336    43.5246 H     63 HOH   0.0000 
189 H2      -4.2950     6.2807    44.1716 H     63 HOH   0.0000 
190 O       -6.6636    10.7928    47.6000 O.3   64 HOH   0.0000 
191 H1      -5.7036    10.7928    47.6000 H     64 HOH   0.0000 
192 H2      -6.9539    11.4399    48.2470 H     64 HOH   0.0000 
193 O       -9.0246    10.8347    12.4922 O.3   65 HOH   0.0000 
194 H1      -8.0646    10.8347    12.4922 H     65 HOH   0.0000 
195 H2      -9.3149    11.4817    13.1393 H     65 HOH   0.0000 
196 O        1.1529    -3.4725    24.7307 O.3   66 HOH   0.0000 
197 H1       2.1129    -3.4725    24.7307 H     66 HOH   0.0000 
198 H2       0.8626    -2.8255    25.3778 H     66 HOH   0.0000 
199 O      -20.1272    27.1043    26.6454 O.3   67 HOH   0.0000 
200 H1     -19.1672    27.1043    26.6454 H     67 HOH   0.0000 
201 H2     -20.4174    27.7513    27.2924 H     67 HOH   0.0000 
202 O       -7.4123     0.0823    35.9051 O.3   68 HOH   0.0000 
203 H1      -6.4523     0.0823    35.9051 H     68 HOH   0.0000 
204 H2      -7.7026     0.7293    36.5522 H     68 HOH   0.0000 
205 O        4.7350    35.0458    28.1509 O.3   69 HOH   0.0000 
206 H1       5.6950    35.0458    28.1509 H     69 HOH   0.0000 
207 H2       4.4447    35.6929    28.7980 H     69 HOH   0.0000 
208 O      -22.3914    11.5634    36.9909 O.3   70 HOH   0.0000 
209 H1     -21.4314    11.5634    36.9909 H     70 HOH   0.0000 
210 H2     -22.6816    12.2105    37.6380 H     70 HOH   0.0000 
211 O        2.6950    17.0508    20.3256 O.3   71 HOH   0.0000 
212 H1       3.6550    17.0508    20.3256 H     71 HOH   0.0000 
213 H2       2.4047    17.6978    20.9726 H     71 HOH   0.0000 
214 O        4.2864     5.7012    30.9089 O.3   72 HOH   0.0000 
215 H1       5.2464     5.7012    30.9089 H     72 HOH   0.0000 
216 H2       3.9961     6.3483    31.5560 H     72 HOH   0.0000 
217 O       -6.6622    23.5014    16.7211 O.3   73 HOH   0.0000 
218 H1      -5.7022    23.5014    16.7211 H     73 HOH   0.0000 
219 H2      -6.9525    24.1485    17.3681 H     73 HOH   0.0000 
220 O       -1.1859    10.0066    38.1639 O.3   74 HOH   0.0000 
221 H1      -0.2259    10.0066    38.1639 H     74 HOH   0.0000 
222 H2      -1.4762    10.6536    38.8109 H     74 HOH   0.0000 
223 O      -14.3985    28.0415    23.4448 O.3   75 HOH   0.0000 
224 H1     -13.4385    28.0415    23.4448 H     75 HOH   0.0000 
225 H2     -14.6887    28.6886    24.0919 H     75 HOH   0.0000 
226 O       -9.0462    22.2601    16.0648 O.3   76 HOH   0.0000 
227 H1      -8.0862    22.2601    16.0648 H     76 HOH   0.0000 
228 H2      -9.3365    22.9071    16.7119 H     76 HOH   0.0000 
229 O      -21.4893     6.8963    44.8696 O.3   77 HOH   0.0000 
230 H1     -20.5293     6.8963    44.8696 H     77 HOH   0.0000 
231 H2     -21.7796     7.5434    45.5167 H     77 HOH   0.0000 
232 O        2.1257    15.7369    30.3338 O.3   78 HOH   0.0000 
233 H1       3.0857    15.7369    30.3338 H     78 HOH   0.0000 
234 H2       1.8354    16.3839    30.9809 H     78 HOH   0.0000 
235 O      -25.2986    14.1935    25.7004 O.3   79 HOH   0.0000 
236 H1     -24.3386    14.1935    25.7004 H     79 HOH   0.0000 
237 H2     -25.5888    14.8406    26.3475 H     79 HOH   0.0000 
238 O       -8.5828    -1.1595    33.0191 O.3   80 HOH   0.0000 
239 H1      -7.6228    -1.1595    33.0191 H     80 HOH   0.0000 
240 H2      -8.8731    -0.5125    33.6662 H     80 HOH   0.0000 
241 O      -13.5219    21.4478    12.8436 O.3   81 HOH   0.0000 
242 H1     -12.5619    21.4478    12.8436 H     81 HOH   0.0000 
243 H2     -13.8122    22.0948    13.4907 H     81 HOH   0.0000 
244 O       -0.1565    14.1792    43.9923 O.3   82 HOH  -0.8340 
245 H1      -0.5634    13.8226    44.7820 H     82 HOH   0.4170 
246 H2       0.3323    13.4446    43.6215 H     82 HOH   0.4170 
247 O      -24.0746     8.8783    47.0098 O.3   83 HOH   0.0000 
248 H1     -23.1146     8.8783    47.0098 H     83 HOH   0.0000 
249 H2     -24.3649     9.5253    47.6568 H     83 HOH   0.0000 
250 O      -14.8027    -0.8456    27.1160 O.3   84 HOH   0.0000 
251 H1     -13.8427    -0.8456    27.1160 H     84 HOH   0.0000 
252 H2     -15.0929    -0.1985    27.7631 H     84 HOH   0.0000 
253 O       -6.9909    18.0615    13.2314 O.3   85 HOH   0.0000 
254 H1      -6.0309    18.0615    13.2314 H     85 HOH   0.0000 
255 H2      -7.2811    18.7086    13.8784 H     85 HOH   0.0000 
256 O        5.2305    15.2205    28.5208 O.3   86 HOH   0.0000 
257 H1       6.1905    15.2205    28.5208 H     86 HOH   0.0000 
258 H2       4.9403    15.8675    29.1678 H     86 HOH   0.0000 
259 O      -19.2949    21.8587    16.4722 O.3   87 HOH   0.0000 
260 H1     -18.3349    21.8587    16.4722 H     87 HOH   0.0000 
261 H2     -19.5852    22.5057    17.1192 H     87 HOH   0.0000 
262 O       19.9176    22.8424    28.2946 O.3   88 HOH   0.0000 
263 H1      20.8776    22.8424    28.2946 H     88 HOH   0.0000 
264 H2      19.6273    23.4895    28.9417 H     88 HOH   0.0000 
265 O      -19.0650    19.4080    15.4535 O.3   89 HOH   0.0000 
266 H1     -18.1050    19.4080    15.4535 H     89 HOH   0.0000 
267 H2     -19.3552    20.0551    16.1006 H     89 HOH   0.0000 
268 O        1.1552    18.6345    26.6376 O.3   90 HOH  -0.8340 
269 H1       1.1776    18.9930    27.5248 H     90 HOH   0.4170 
270 H2       0.5045    19.1669    26.1800 H     90 HOH   0.4170 
271 O       -1.0419    33.1669    34.4306 O.3   91 HOH   0.0000 
272 H1      -0.0819    33.1669    34.4306 H     91 HOH   0.0000 
273 H2      -1.3321    33.8139    35.0776 H     91 HOH   0.0000 
274 O      -10.6497    28.4864    41.2244 O.3   92 HOH   0.0000 
275 H1      -9.6897    28.4864    41.2244 H     92 HOH   0.0000 
276 H2     -10.9400    29.1334    41.8715 H     92 HOH   0.0000 
277 O       -8.5823     1.5149    38.9583 O.3   93 HOH   0.0000 
278 H1      -7.6223     1.5149    38.9583 H     93 HOH   0.0000 
279 H2      -8.8726     2.1620    39.6053 H     93 HOH   0.0000 
280 O       -6.0430    23.4885    47.3356 O.3   94 HOH   0.0000 
281 H1      -5.0830    23.4885    47.3356 H     94 HOH   0.0000 
282 H2      -6.3332    24.1356    47.9827 H     94 HOH   0.0000 
283 O      -18.7186    21.6239    46.0483 O.3   95 HOH   0.0000 
284 H1     -17.7586    21.6239    46.0483 H     95 HOH   0.0000 
285 H2     -19.0089    22.2710    46.6953 H     95 HOH   0.0000 
286 O      -16.2933    23.9038    44.6982 O.3   96 HOH   0.0000 
287 H1     -15.3333    23.9038    44.6982 H     96 HOH   0.0000 
288 H2     -16.5836    24.5508    45.3453 H     96 HOH   0.0000 
289 O      -11.3090    19.7811    12.4352 O.3   97 HOH   0.0000 
290 H1     -10.3490    19.7811    12.4352 H     97 HOH   0.0000 
291 H2     -11.5993    20.4282    13.0822 H     97 HOH   0.0000 
292 O        4.4969    22.6472    53.0842 O.3   98 HOH   0.0000 
293 H1       5.4569    22.6472    53.0842 H     98 HOH   0.0000 
294 H2       4.2066    23.2943    53.7312 H     98 HOH   0.0000 
295 O      -28.3897     8.6054    22.6642 O.3   99 HOH   0.0000 
296 H1     -27.4297     8.6054    22.6642 H     99 HOH   0.0000 
297 H2     -28.6800     9.2524    23.3112 H     99 HOH   0.0000 
@<TRIPOS>BOND
  1   1   2  1   
  2   1   3  1   
  3   4   5  1   
  4   4   6  1   
  5   7   8  1   
  6   7   9  1   
  7  10  11  1   
  8  10  12  1   
  9  13  14  1   
 10  13  15  1   
 11  16  17  1   
 12  16  18  1   
 13  19  20  1   
 14  19  21  1   
 15  22  23  1   
 16  22  24  1   
 17  25  26  1   
 18  25  27  1   
 19  28  29  1   
 20  28  30  1   
 21  31  32  1   
 22  31  33  1   
 23  34  35  1   
 24  34  36  1   
 25  37  38  1   
 26  37  39  1   
 27  40  41  1   
 28  40  42  1   
 29  43  44  1   
 30  43  45  1   
 31  46  47  1   
 32  46  48  1   
 33  49  50  1   
 34  49  51  1   
 35  52  53  1   
 36  52  54  1   
 37  55  56  1   
 38  55  57  1   
 39  58  59  1   
 40  58  60  1   
 41  61  62  1   
 42  61  63  1   
 43  64  65  1   
 44  64  66  1   
 45  67  68  1   
 46  67  69  1   
 47  70  71  1   
 48  70  72  1   
 49  73  74  1   
 50  73  75  1   
 51  76  77  1   
 52  76  78  1   
 53  79  80  1   
 54  79  81  1   
 55  82  83  1   
 56  82  84  1   
 57  85  86  1   
 58  85  87  1   
 59  88  89  1   
 60  88  90  1   
 61  91  92  1   
 62  91  93  1   
 63  94  95  1   
 64  94  96  1   
 65  97  98  1   
 66  97  99  1   
 67 100 101  1   
 68 100 102  1   
 69 103 104  1   
 70 103 105  1   
 71 106 107  1   
 72 106 108  1   
 73 109 110  1   
 74 109 111  1   
 75 112 113  1   
 76 112 114  1   
 77 115 116  1   
 78 115 117  1   
 79 118 119  1   
 80 118 120  1   
 81 121 122  1   
 82 121 123  1   
 83 124 125  1   
 84 124 126  1   
 85 127 128  1   
 86 127 129  1   
 87 130 131  1   
 88 130 132  1   
 89 133 134  1   
 90 133 135  1   
 91 136 137  1   
 92 136 138  1   
 93 139 140  1   
 94 139 141  1   
 95 142 143  1   
 96 142 144  1   
 97 145 146  1   
 98 145 147  1   
 99 148 149  1   
100 148 150  1   
101 151 152  1   
102 151 153  1   
103 154 155  1   
104 154 156  1   
105 157 158  1   
106 157 159  1   
107 160 161  1   
108 160 162  1   
109 163 164  1   
110 163 165  1   
111 166 167  1   
112 166 168  1   
113 169 170  1   
114 169 171  1   
115 172 173  1   
116 172 174  1   
117 175 176  1   
118 175 177  1   
119 178 179  1   
120 178 180  1   
121 181 182  1   
122 181 183  1   
123 184 185  1   
124 184 186  1   
125 187 188  1   
126 187 189  1   
127 190 191  1   
128 190 192  1   
129 193 194  1   
130 193 195  1   
131 196 197  1   
132 196 198  1   
133 199 200  1   
134 199 201  1   
135 202 203  1   
136 202 204  1   
137 205 206  1   
138 205 207  1   
139 208 209  1   
140 208 210  1   
141 211 212  1   
142 211 213  1   
143 214 215  1   
144 214 216  1   
145 217 218  1   
146 217 219  1   
147 220 221  1   
148 220 222  1   
149 223 224  1   
150 223 225  1   
151 226 227  1   
152 226 228  1   
153 229 230  1   
154 229 231  1   
155 232 233  1   
156 232 234  1   
157 235 236  1   
158 235 237  1   
159 238 239  1   
160 238 240  1   
161 241 242  1   
162 241 243  1   
163 244 245  1   
164 244 246  1   
165 247 248  1   
166 247 249  1   
167 250 251  1   
168 250 252  1   
169 253 254  1   
170 253 255  1   
171 256 257  1   
172 256 258  1   
173 259 260  1   
174 259 261  1   
175 262 263  1   
176 262 264  1   
177 265 266  1   
178 265 267  1   
179 268 269  1   
180 268 270  1   
181 271 272  1   
182 271 273  1   
183 274 275  1   
184 274 276  1   
185 277 278  1   
186 277 279  1   
187 280 281  1   
188 280 282  1   
189 283 284  1   
190 283 285  1   
191 286 287  1   
192 286 288  1   
193 289 290  1   
194 289 291  1   
195 292 293  1   
196 292 294  1   
197 295 296  1   
198 295 297  1   
@<TRIPOS>SUBSTRUCTURE
  1 HOH   1 GROUP 4 A **** 0
  2 HOH   4 GROUP 4 A **** 0
  3 HOH   7 GROUP 4 A **** 0
  4 HOH  10 GROUP 4 A **** 0
  5 HOH  13 GROUP 4 A **** 0
  6 HOH  16 GROUP 4 A **** 0
  7 HOH  19 GROUP 4 A **** 0
  8 HOH  22 GROUP 4 A **** 0
  9 HOH  25 GROUP 4 A **** 0
 10 HOH  28 GROUP 4 A **** 0
 11 HOH  31 GROUP 4 A **** 0
 12 HOH  34 GROUP 4 A **** 0
 13 HOH  37 GROUP 4 A **** 0
 14 HOH  40 GROUP 4 A **** 0
 15 HOH  43 GROUP 4 A **** 0
 16 HOH  46 GROUP 4 A **** 0
 17 HOH  49 GROUP 4 A **** 0
 18 HOH  52 GROUP 4 A **** 0
 19 HOH  55 GROUP 4 A **** 0
 20 HOH  58 GROUP 4 A **** 0
 21 HOH  61 GROUP 4 A **** 0
 22 HOH  64 GROUP 4 A **** 0
 23 HOH  67 GROUP 4 A **** 0
 24 HOH  70 GROUP 4 A **** 0
 25 HOH  73 GROUP 4 A **** 0
 26 HOH  76 GROUP 4 A **** 0
 27 HOH  79 GROUP 4 A **** 0
 28 HOH  82 GROUP 4 A **** 0
 29 HOH  85 GROUP 4 A **** 0
 30 HOH  88 GROUP 4 A **** 0
 31 HOH  91 GROUP 4 A **** 0
 32 HOH  94 GROUP 4 A **** 0
 33 HOH  97 GROUP 4 A **** 0
 34 HOH 100 GROUP 4 A **** 0
 35 HOH 103 GROUP 4 A **** 0
 36 HOH 106 GROUP 4 A **** 0
 37 HOH 109 GROUP 4 A **** 0
 38 HOH 112 GROUP 4 A **** 0
 39 HOH 115 GROUP 4 A **** 0
 40 HOH 118 GROUP 4 A **** 0
 41 HOH 121 GROUP 4 A **** 0
 42 HOH 124 GROUP 4 A **** 0
 43 HOH 127 GROUP 4 A **** 0
 44 HOH 130 GROUP 4 A **** 0
 45 HOH 133 GROUP 4 A **** 0
 46 HOH 136 GROUP 4 A **** 0
 47 HOH 139 GROUP 4 A **** 0
 48 HOH 142 GROUP 4 A **** 0
 49 HOH 145 GROUP 4 A **** 0
 50 HOH 148 GROUP 4 A **** 0
 51 HOH 151 GROUP 4 A **** 0
 52 HOH 154 GROUP 4 A **** 0
 53 HOH 157 GROUP 4 A **** 0
 54 HOH 160 GROUP 4 A **** 0
 55 HOH 163 GROUP 4 A **** 0
 56 HOH 166 GROUP 4 A **** 0
 57 HOH 169 GROUP 4 A **** 0
 58 HOH 172 GROUP 4 A **** 0
 59 HOH 175 GROUP 4 A **** 0
 60 HOH 178 GROUP 4 A **** 0
 61 HOH 181 GROUP 4 A **** 0
 62 HOH 184 GROUP 4 A **** 0
 63 HOH 187 GROUP 4 A **** 0
 64 HOH 190 GROUP 4 A **** 0
 65 HOH 193 GROUP 4 A **** 0
 66 HOH 196 GROUP 4 A **** 0
 67 HOH 199 GROUP 4 A **** 0
 68 HOH 202 GROUP 4 A **** 0
 69 HOH 205 GROUP 4 A **** 0
 70 HOH 208 GROUP 4 A **** 0
 71 HOH 211 GROUP 4 A **** 0
 72 HOH 214 GROUP 4 A **** 0
 73 HOH 217 GROUP 4 A **** 0
 74 HOH 220 GROUP 4 A **** 0
 75 HOH 223 GROUP 4 A **** 0
 76 HOH 226 GROUP 4 A **** 0
 77 HOH 229 GROUP 4 A **** 0
 78 HOH 232 GROUP 4 A **** 0
 79 HOH 235 GROUP 4 A **** 0
 80 HOH 238 GROUP 4 A **** 0
 81 HOH 241 GROUP 4 A **** 0
 82 HOH 244 GROUP 4 A **** 0
 83 HOH 247 GROUP 4 A **** 0
 84 HOH 250 GROUP 4 A **** 0
 85 HOH 253 GROUP 4 A **** 0
 86 HOH 256 GROUP 4 A **** 0
 87 HOH 259 GROUP 4 A **** 0
 88 HOH 262 GROUP 4 A **** 0
 89 HOH 265 GROUP 4 A **** 0
 90 HOH 268 GROUP 4 A **** 0
 91 HOH 271 GROUP 4 A **** 0
 92 HOH 274 GROUP 4 A **** 0
 93 HOH 277 GROUP 4 A **** 0
 94 HOH 280 GROUP 4 A **** 0
 95 HOH 283 GROUP 4 A **** 0
 96 HOH 286 GROUP 4 A **** 0
 97 HOH 289 GROUP 4 A **** 0
 98 HOH 292 GROUP 4 A **** 0
 99 HOH 295 GROUP 4 A **** 0

# MOE 2012.10 (io_trps.svl 2012.10)
