@<TRIPOS>MOLECULE
4-(2,4-dichloro-5-methoxy-anilino)-6-methoxy-7-[3-(4-methylpiperazin-1-yl)propoxy]quinoline-3-carbonitrile
   65    68     0     0     0
SMALL
USER_CHARGES

@<TRIPOS>ATOM
      1 C1        -47.0218    4.0488  -62.2225 C.1       1 MOL         0.2440
      2 C2        -43.4008    0.9677  -60.9519 C.ar      1 MOL        -0.1135
      3 C3        -45.3102   -0.6759  -59.7880 C.ar      1 MOL        -0.2141
      4 C4        -44.5311    3.0485  -64.5707 C.ar      1 MOL        -0.1806
      5 C5        -43.4354    5.5572  -65.1081 C.ar      1 MOL        -0.0838
      6 C6        -47.4104    1.9779  -61.0104 C.ar      1 MOL         0.4607
      7 C7        -46.5295    2.8529  -61.6130 C.ar      1 MOL        -0.1707
      8 C8        -44.7572    1.3333  -60.9851 C.ar      1 MOL        -0.1738
      9 C9        -45.7335    0.5030  -60.3956 C.ar      1 MOL         0.4310
     10 C10       -44.1085    3.8643  -63.5212 C.ar      1 MOL         0.1952
     11 C11       -45.1827    2.5200  -61.5970 C.ar      1 MOL         0.2624
     12 C12       -43.0055   -0.2170  -60.3373 C.ar      1 MOL         0.0881
     13 C13       -43.9617   -1.0396  -59.7548 C.ar      1 MOL         0.1210
     14 C14       -44.4057    3.4870  -65.8890 C.ar      1 MOL         0.1334
     15 C15       -43.5607    5.1186  -63.7898 C.ar      1 MOL        -0.0295
     16 C16       -43.8579    4.7414  -66.1576 C.ar      1 MOL        -0.0184
     17 C17       -40.9466   -7.7393  -56.6601 C.3       1 MOL         0.1674
     18 C18       -39.3547   -5.9322  -56.7876 C.3       1 MOL         0.1674
     19 C19       -41.9989   -6.8603  -57.3448 C.3       1 MOL         0.1711
     20 C20       -40.4070   -5.0540  -57.4734 C.3       1 MOL         0.1711
     21 C21       -38.5898   -8.1890  -56.4168 C.3       1 MOL         0.1580
     22 C22       -41.1985   -1.3369  -61.4035 C.3       1 MOL         0.1163
     23 C23       -43.8691    1.7617  -67.4352 C.3       1 MOL         0.1155
     24 C24       -42.8536   -3.2122  -57.0990 C.3       1 MOL        -0.0888
     25 C25       -42.7638   -4.6031  -57.7127 C.3       1 MOL         0.1796
     26 C26       -43.9115   -2.3401  -57.7643 C.3       1 MOL         0.1327
     27 N1        -47.4214    5.0195  -62.7174 N.1       1 MOL        -0.3586
     28 N2        -47.0412    0.8235  -60.4096 N.ar      1 MOL        -0.6627
     29 N3        -39.5922   -7.3523  -57.0738 N.3       1 MOL        -0.7336
     30 N4        -41.7608   -5.4404  -57.0577 N.3       1 MOL        -0.7378
     31 N5        -44.2473    3.3957  -62.2064 N.pl3     1 MOL        -0.6909
     32 O1        -41.6875   -0.5570  -60.3135 O.3       1 MOL        -0.3321
     33 O2        -44.8270    2.6691  -66.8949 O.3       1 MOL        -0.3373
     34 O3        -43.5958   -2.2108  -59.1443 O.3       1 MOL        -0.3346
     35 Cl1       -43.0250    6.1599  -62.5197 Cl        1 MOL        -0.0755
     36 Cl2       -43.6915    5.3083  -67.7784 Cl        1 MOL        -0.0644
     37 H1        -42.6343    1.5957  -61.4009 H         1 MOL         0.1532
     38 H2        -46.0453   -1.3335  -59.3259 H         1 MOL         0.1655
     39 H3        -44.9589    2.0695  -64.3666 H         1 MOL         0.1571
     40 H4        -43.0081    6.5355  -65.3184 H         1 MOL         0.1657
     41 H5        -48.4790    2.1723  -60.9846 H         1 MOL         0.0371
     42 H6        -41.0587   -7.6675  -55.5696 H         1 MOL         0.0377
     43 H7        -41.1351   -8.7832  -56.9389 H         1 MOL         0.0377
     44 H8        -38.3656   -5.6396  -57.1605 H         1 MOL         0.0377
     45 H9        -39.3646   -5.7434  -55.7054 H         1 MOL         0.0377
     46 H10       -41.9895   -7.0484  -58.4271 H         1 MOL         0.0370
     47 H11       -42.9879   -7.1529  -56.9717 H         1 MOL         0.0370
     48 H12       -40.2181   -4.0099  -57.1957 H         1 MOL         0.0370
     49 H13       -40.2955   -5.1273  -58.5638 H         1 MOL         0.0370
     50 H14       -37.5866   -7.8913  -56.7327 H         1 MOL         0.0322
     51 H15       -38.7440   -9.2394  -56.6784 H         1 MOL         0.0322
     52 H16       -38.6626   -8.0839  -55.3310 H         1 MOL         0.0322
     53 H17       -40.1340   -1.5376  -61.2602 H         1 MOL         0.0460
     54 H18       -41.3553   -0.7950  -62.3396 H         1 MOL         0.0460
     55 H19       -41.7441   -2.2829  -61.4366 H         1 MOL         0.0460
     56 H20       -44.3334    1.1697  -68.2277 H         1 MOL         0.0471
     57 H21       -43.5009    1.1047  -66.6432 H         1 MOL         0.0471
     58 H22       -43.0345    2.3314  -67.8506 H         1 MOL         0.0471
     59 H23       -43.0877   -3.3022  -56.0309 H         1 MOL         0.0653
     60 H24       -41.8809   -2.7069  -57.1511 H         1 MOL         0.0653
     61 H25       -43.7236   -5.1200  -57.6152 H         1 MOL         0.0322
     62 H26       -42.5111   -4.5484  -58.7765 H         1 MOL         0.0322
     63 H27       -44.9063   -2.7882  -57.6791 H         1 MOL         0.0410
     64 H28       -43.9306   -1.3410  -57.3173 H         1 MOL         0.0410
     65 H29       -43.5500    3.7454  -61.5611 H         1 MOL         0.4556
@<TRIPOS>BOND
     1    1    7 1
     2    1   27 3
     3    2    8 ar
     4    2   12 ar
     5    3    9 ar
     6    3   13 ar
     7    4   10 ar
     8    4   14 ar
     9    5   15 ar
    10    5   16 ar
    11    6    7 ar
    12    6   28 ar
    13    7   11 ar
    14    8    9 ar
    15    8   11 ar
    16    9   28 ar
    17   10   15 ar
    18   10   31 1
    19   11   31 1
    20   12   13 ar
    21   12   32 1
    22   13   34 1
    23   14   16 ar
    24   14   33 1
    25   15   35 1
    26   16   36 1
    27   17   19 1
    28   17   29 1
    29   18   20 1
    30   18   29 1
    31   19   30 1
    32   20   30 1
    33   21   29 1
    34   22   32 1
    35   23   33 1
    36   24   25 1
    37   24   26 1
    38   25   30 1
    39   26   34 1
    40    2   37 1
    41    3   38 1
    42    4   39 1
    43    5   40 1
    44    6   41 1
    45   17   42 1
    46   17   43 1
    47   18   44 1
    48   18   45 1
    49   19   46 1
    50   19   47 1
    51   20   48 1
    52   20   49 1
    53   21   50 1
    54   21   51 1
    55   21   52 1
    56   22   53 1
    57   22   54 1
    58   22   55 1
    59   23   56 1
    60   23   57 1
    61   23   58 1
    62   24   59 1
    63   24   60 1
    64   25   61 1
    65   25   62 1
    66   26   63 1
    67   26   64 1
    68   31   65 1
