@<TRIPOS>MOLECULE
~{N}-(3-ethynylphenyl)-6,7-bis(2-methoxyethoxy)quinazolin-4-amine
   52    54     0     0     0
SMALL
USER_CHARGES

@<TRIPOS>ATOM
      1 C1        -38.2815   -5.8725  -56.9305 C.1       1 MOL        -0.1770
      2 C2        -38.9907   -6.5017  -57.6663 C.1       1 MOL        -0.0730
      3 C3        -40.9205   -7.5546  -60.6659 C.ar      1 MOL        -0.1500
      4 C4        -40.1004   -6.8079  -59.8263 C.ar      1 MOL        -0.1500
      5 C5        -41.4766   -8.7477  -60.2099 C.ar      1 MOL        -0.1500
      6 C6        -40.3972   -8.4575  -58.0743 C.ar      1 MOL        -0.1500
      7 C7        -42.4659  -13.1953  -58.1531 C.ar      1 MOL        -0.1500
      8 C8        -43.2071  -14.0758  -55.6631 C.ar      1 MOL        -0.1500
      9 C9        -42.5648  -10.6256  -54.9832 C.ar      1 MOL         0.4700
     10 C10       -39.8367   -7.2605  -58.5323 C.ar      1 MOL         0.0730
     11 C11       -42.4876  -12.2795  -57.0830 C.ar      1 MOL         0.0000
     12 C12       -42.8616  -12.7322  -55.8123 C.ar      1 MOL         0.3100
     13 C13       -41.2276   -9.2143  -58.9070 C.ar      1 MOL         0.1000
     14 C14       -42.8386  -14.5351  -58.0068 C.ar      1 MOL         0.0825
     15 C15       -43.2026  -14.9847  -56.7372 C.ar      1 MOL         0.0825
     16 C16       -42.1661  -10.9095  -57.2189 C.ar      1 MOL         0.4100
     17 C17       -44.1549  -15.3748  -63.6998 C.3       1 MOL         0.2800
     18 C18       -45.9560  -17.4931  -52.6691 C.3       1 MOL         0.2800
     19 C19       -42.8424  -14.7957  -60.3460 C.3       1 MOL         0.2800
     20 C20       -43.4958  -16.8993  -55.3385 C.3       1 MOL         0.2800
     21 C21       -43.3673  -15.6708  -61.4715 C.3       1 MOL         0.2800
     22 C22       -44.8600  -16.8890  -54.6638 C.3       1 MOL         0.2800
     23 N1        -42.9006  -11.9066  -54.7567 N.ar      1 MOL        -0.6200
     24 N2        -42.2003  -10.0795  -56.1535 N.ar      1 MOL        -0.6200
     25 N3        -41.8281  -10.4196  -58.5061 N.pl3     1 MOL        -0.6000
     26 O1        -42.8696  -15.4294  -59.0625 O.3       1 MOL        -0.3625
     27 O2        -43.5581  -16.3046  -56.6336 O.3       1 MOL        -0.3625
     28 O3        -43.8011  -14.7543  -62.4801 O.3       1 MOL        -0.5600
     29 O4        -44.7194  -17.4607  -53.3673 O.3       1 MOL        -0.5600
     30 H1        -37.6533   -5.3177  -56.2749 H         1 MOL         0.1770
     31 H2        -41.1303   -7.2110  -61.6742 H         1 MOL         0.1500
     32 H3        -39.6728   -5.8784  -60.1919 H         1 MOL         0.1500
     33 H4        -42.1171   -9.3166  -60.8814 H         1 MOL         0.1500
     34 H5        -40.1740   -8.7957  -57.0653 H         1 MOL         0.1500
     35 H6        -42.1559  -12.8332  -59.1272 H         1 MOL         0.1500
     36 H7        -43.5019  -14.3984  -54.6670 H         1 MOL         0.1500
     37 H8        -42.5985   -9.9591  -54.1307 H         1 MOL         0.1500
     38 H9        -44.6215  -14.6177  -64.3376 H         1 MOL         0.0000
     39 H10       -44.8689  -16.1861  -63.5373 H         1 MOL         0.0000
     40 H11       -43.2563  -15.7427  -64.2007 H         1 MOL         0.0000
     41 H12       -45.7825  -17.9368  -51.6851 H         1 MOL         0.0000
     42 H13       -46.6829  -18.1080  -53.2079 H         1 MOL         0.0000
     43 H14       -46.3460  -16.4799  -52.5320 H         1 MOL         0.0000
     44 H15       -43.4706  -13.8956  -60.3397 H         1 MOL         0.0000
     45 H16       -41.8090  -14.5079  -60.5806 H         1 MOL         0.0000
     46 H17       -43.1876  -17.9419  -55.4822 H         1 MOL         0.0000
     47 H18       -42.7106  -16.4670  -54.7046 H         1 MOL         0.0000
     48 H19       -44.2057  -16.2922  -61.1416 H         1 MOL         0.0000
     49 H20       -42.5714  -16.3174  -61.8579 H         1 MOL         0.0000
     50 H21       -45.5735  -17.4698  -55.2598 H         1 MOL         0.0000
     51 H22       -45.2544  -15.8703  -54.5820 H         1 MOL         0.0000
     52 H23       -42.3260  -10.8807  -59.2611 H         1 MOL         0.4000
@<TRIPOS>BOND
     1    1    2 3
     2    2   10 1
     3    3    4 ar
     4    3    5 ar
     5    4   10 ar
     6    5   13 ar
     7    6   10 ar
     8    6   13 ar
     9    7   11 ar
    10    7   14 ar
    11    8   12 ar
    12    8   15 ar
    13    9   23 ar
    14    9   24 ar
    15   11   12 ar
    16   11   16 ar
    17   12   23 ar
    18   13   25 1
    19   14   15 ar
    20   14   26 1
    21   15   27 1
    22   16   24 ar
    23   16   25 1
    24   17   28 1
    25   18   29 1
    26   19   21 1
    27   19   26 1
    28   20   22 1
    29   20   27 1
    30   21   28 1
    31   22   29 1
    32    1   30 1
    33    3   31 1
    34    4   32 1
    35    5   33 1
    36    6   34 1
    37    7   35 1
    38    8   36 1
    39    9   37 1
    40   17   38 1
    41   17   39 1
    42   17   40 1
    43   18   41 1
    44   18   42 1
    45   18   43 1
    46   19   44 1
    47   19   45 1
    48   20   46 1
    49   20   47 1
    50   21   48 1
    51   21   49 1
    52   22   50 1
    53   22   51 1
    54   25   52 1
