@<TRIPOS>MOLECULE
~{N}-(3-ethynylphenyl)-6,7-bis(2-methoxyethoxy)quinazolin-4-amine
   52    54     0     0     0
SMALL
USER_CHARGES

@<TRIPOS>ATOM
      1 C1        -37.3787   -7.9829  -54.1286 C.1       1 MOL        -0.1333
      2 C2        -38.2851   -8.4718  -53.5113 C.1       1 MOL        -0.1268
      3 C3        -41.7289   -9.4676  -52.5086 C.ar      1 MOL        -0.1106
      4 C4        -40.6756   -8.8994  -53.2250 C.ar      1 MOL        -0.1283
      5 C5        -41.4704  -10.1905  -51.3439 C.ar      1 MOL        -0.1307
      6 C6        -39.1052   -9.7770  -51.6123 C.ar      1 MOL        -0.1551
      7 C7        -39.6098  -13.4878  -48.2367 C.ar      1 MOL        -0.1186
      8 C8        -41.1427  -13.7858  -45.9394 C.ar      1 MOL        -0.2564
      9 C9        -42.1868  -10.5415  -47.0531 C.ar      1 MOL         0.6704
     10 C10       -39.3638   -9.0541  -52.7769 C.ar      1 MOL         0.0467
     11 C11       -40.4942  -12.4719  -47.8344 C.ar      1 MOL        -0.3025
     12 C12       -41.2746  -12.6105  -46.6749 C.ar      1 MOL         0.4581
     13 C13       -40.1585  -10.3452  -50.8958 C.ar      1 MOL         0.1660
     14 C14       -39.4979  -14.6518  -47.4827 C.ar      1 MOL         0.0835
     15 C15       -40.2655  -14.8007  -46.3329 C.ar      1 MOL         0.1515
     16 C16       -40.6532  -11.2842  -48.5427 C.ar      1 MOL         0.7169
     17 C17       -38.9115  -19.3947  -49.4928 C.3       1 MOL         0.1162
     18 C18       -41.3713  -19.8332  -46.0040 C.3       1 MOL         0.1202
     19 C19       -38.3994  -15.7578  -49.2787 C.3       1 MOL         0.1265
     20 C20       -41.3406  -16.3343  -44.8673 C.3       1 MOL         0.1161
     21 C21       -38.0685  -17.2035  -49.5957 C.3       1 MOL         0.1180
     22 C22       -41.3522  -17.8462  -44.7493 C.3       1 MOL         0.1233
     23 N1        -42.1234  -11.6452  -46.2808 N.ar      1 MOL        -0.7145
     24 N2        -41.4935  -10.2979  -48.1768 N.ar      1 MOL        -0.7616
     25 N3        -39.8989  -11.0728  -49.7237 N.pl3     1 MOL        -0.7646
     26 O1        -38.6396  -15.6316  -47.8781 O.3       1 MOL        -0.3242
     27 O2        -40.1723  -15.9321  -45.5794 O.3       1 MOL        -0.3103
     28 O3        -39.1581  -18.0269  -49.1982 O.3       1 MOL        -0.4209
     29 O4        -41.3816  -18.4134  -46.0535 O.3       1 MOL        -0.4269
     30 H1        -36.5745   -7.5496  -54.6760 H         1 MOL         0.1679
     31 H2        -42.7504   -9.3473  -52.8574 H         1 MOL         0.1379
     32 H3        -40.8932   -8.3388  -54.1310 H         1 MOL         0.1416
     33 H4        -42.2987  -10.6290  -50.7934 H         1 MOL         0.1512
     34 H5        -38.0831   -9.9002  -51.2591 H         1 MOL         0.1397
     35 H6        -39.0020  -13.3885  -49.1330 H         1 MOL         0.1429
     36 H7        -41.7355  -13.9206  -45.0359 H         1 MOL         0.1673
     37 H8        -42.8725   -9.7676  -46.7301 H         1 MOL         0.0545
     38 H9        -39.7664  -19.9965  -49.1751 H         1 MOL         0.0357
     39 H10       -38.0079  -19.7231  -48.9731 H         1 MOL         0.0357
     40 H11       -38.7705  -19.5064  -50.5705 H         1 MOL         0.0357
     41 H12       -41.3945  -20.2341  -47.0203 H         1 MOL         0.0354
     42 H13       -42.2400  -20.1854  -45.4420 H         1 MOL         0.0354
     43 H14       -40.4578  -20.1649  -45.5047 H         1 MOL         0.0354
     44 H15       -39.2998  -15.4337  -49.8094 H         1 MOL         0.0523
     45 H16       -37.5611  -15.1065  -49.5426 H         1 MOL         0.0523
     46 H17       -41.3179  -15.8618  -43.8806 H         1 MOL         0.0609
     47 H18       -42.2168  -15.9870  -45.4225 H         1 MOL         0.0609
     48 H19       -37.1769  -17.5325  -49.0529 H         1 MOL         0.0444
     49 H20       -37.9146  -17.3341  -50.6709 H         1 MOL         0.0444
     50 H21       -42.2372  -18.1930  -44.2067 H         1 MOL         0.0457
     51 H22       -40.4484  -18.1977  -44.2431 H         1 MOL         0.0457
     52 H23       -38.9996  -11.5391  -49.7129 H         1 MOL         0.4489
@<TRIPOS>BOND
     1    1    2 3
     2    2   10 1
     3    3    4 ar
     4    3    5 ar
     5    4   10 ar
     6    5   13 ar
     7    6   10 ar
     8    6   13 ar
     9    7   11 ar
    10    7   14 ar
    11    8   12 ar
    12    8   15 ar
    13    9   23 ar
    14    9   24 ar
    15   11   12 ar
    16   11   16 ar
    17   12   23 ar
    18   13   25 1
    19   14   15 ar
    20   14   26 1
    21   15   27 1
    22   16   24 ar
    23   16   25 1
    24   17   28 1
    25   18   29 1
    26   19   21 1
    27   19   26 1
    28   20   22 1
    29   20   27 1
    30   21   28 1
    31   22   29 1
    32    1   30 1
    33    3   31 1
    34    4   32 1
    35    5   33 1
    36    6   34 1
    37    7   35 1
    38    8   36 1
    39    9   37 1
    40   17   38 1
    41   17   39 1
    42   17   40 1
    43   18   41 1
    44   18   42 1
    45   18   43 1
    46   19   44 1
    47   19   45 1
    48   20   46 1
    49   20   47 1
    50   21   48 1
    51   21   49 1
    52   22   50 1
    53   22   51 1
    54   25   52 1
