@<TRIPOS>MOLECULE
4-(2,4-dichloro-5-methoxy-anilino)-6-methoxy-7-[3-(4-methylpiperazin-1-yl)propoxy]quinoline-3-carbonitrile
   65    68     0     0     0
SMALL
USER_CHARGES

@<TRIPOS>ATOM
      1 C1        -41.7290   -7.2004  -54.4057 C.1       1 MOL         0.2440
      2 C2        -41.9941  -10.8739  -57.6699 C.ar      1 MOL        -0.1135
      3 C3        -43.5325  -12.2860  -55.8421 C.ar      1 MOL        -0.2141
      4 C4        -42.5506   -6.5877  -57.8216 C.ar      1 MOL        -0.1806
      5 C5        -40.3919   -4.9481  -58.4804 C.ar      1 MOL        -0.0838
      6 C6        -42.9332   -9.2680  -53.9767 C.ar      1 MOL         0.4607
      7 C7        -42.1636   -8.4966  -54.8238 C.ar      1 MOL        -0.1707
      8 C8        -42.2996  -10.3061  -56.4213 C.ar      1 MOL        -0.1738
      9 C9        -43.0809  -11.0179  -55.4870 C.ar      1 MOL         0.4310
     10 C10       -41.2478   -7.0108  -57.5586 C.ar      1 MOL         0.1952
     11 C11       -41.8449   -9.0294  -56.0645 C.ar      1 MOL         0.2624
     12 C12       -42.4588  -12.1441  -57.9987 C.ar      1 MOL         0.0881
     13 C13       -43.2289  -12.8507  -57.0834 C.ar      1 MOL         0.1210
     14 C14       -42.7741   -5.3449  -58.4141 C.ar      1 MOL         0.1334
     15 C15       -40.1684   -6.1910  -57.8880 C.ar      1 MOL        -0.0295
     16 C16       -41.6948   -4.5251  -58.7435 C.ar      1 MOL        -0.0184
     17 C17       -43.9536  -21.3843  -56.6787 C.3       1 MOL         0.1674
     18 C18       -46.1012  -20.3155  -56.9263 C.3       1 MOL         0.1674
     19 C19       -43.3632  -20.0740  -56.1464 C.3       1 MOL         0.1711
     20 C20       -45.5107  -19.0058  -56.3927 C.3       1 MOL         0.1711
     21 C21       -45.9493  -22.7219  -56.8870 C.3       1 MOL         0.1580
     22 C22       -40.9550  -13.4483  -59.3001 C.3       1 MOL         0.1163
     23 C23       -44.7245   -4.2351  -57.6265 C.3       1 MOL         0.1155
     24 C24       -43.8854  -16.4667  -57.0485 C.3       1 MOL        -0.0888
     25 C25       -43.5149  -17.6677  -56.1884 C.3       1 MOL         0.1796
     26 C26       -43.2856  -15.1638  -56.5337 C.3       1 MOL         0.1327
     27 N1        -41.3762   -6.1482  -54.0664 N.1       1 MOL        -0.3586
     28 N2        -43.3918  -10.5034  -54.2822 N.ar      1 MOL        -0.6627
     29 N3        -45.3871  -21.4737  -56.3751 N.3       1 MOL        -0.7336
     30 N4        -44.0777  -18.9165  -56.6983 N.3       1 MOL        -0.7378
     31 N5        -41.0549   -8.2657  -56.9622 N.pl3     1 MOL        -0.6909
     32 O1        -42.1540  -12.6802  -59.2123 O.3       1 MOL        -0.3321
     33 O2        -44.0577   -4.9569  -58.6596 O.3       1 MOL        -0.3373
     34 O3        -43.6974  -14.1028  -57.3853 O.3       1 MOL        -0.3346
     35 Cl1       -38.5395   -6.6768  -57.5795 Cl        1 MOL        -0.0755
     36 Cl2       -41.9428   -2.9834  -59.4768 Cl        1 MOL        -0.0644
     37 H1        -41.3928  -10.3398  -58.4025 H         1 MOL         0.1532
     38 H2        -44.1375  -12.8552  -55.1375 H         1 MOL         0.1655
     39 H3        -43.3958   -7.2232  -57.5666 H         1 MOL         0.1571
     40 H4        -39.5504   -4.3081  -58.7377 H         1 MOL         0.1657
     41 H5        -43.2222   -8.9162  -52.9902 H         1 MOL         0.0371
     42 H6        -43.7771  -21.4558  -57.7606 H         1 MOL         0.0377
     43 H7        -43.4220  -22.2191  -56.2060 H         1 MOL         0.0377
     44 H8        -47.1582  -20.3600  -56.6368 H         1 MOL         0.0377
     45 H9        -46.0630  -20.3175  -58.0241 H         1 MOL         0.0377
     46 H10       -43.4012  -20.0712  -55.0485 H         1 MOL         0.0370
     47 H11       -42.3062  -20.0296  -56.4359 H         1 MOL         0.0370
     48 H12       -46.0428  -18.1707  -56.8643 H         1 MOL         0.0370
     49 H13       -45.6860  -18.9354  -55.3105 H         1 MOL         0.0370
     50 H14       -47.0161  -22.7765  -56.6548 H         1 MOL         0.0322
     51 H15       -45.4456  -23.5784  -56.4308 H         1 MOL         0.0322
     52 H16       -45.8219  -22.7772  -57.9714 H         1 MOL         0.0322
     53 H17       -40.8315  -13.8170  -60.3213 H         1 MOL         0.0460
     54 H18       -41.0070  -14.2876  -58.6020 H         1 MOL         0.0460
     55 H19       -40.1056  -12.8124  -59.0395 H         1 MOL         0.0460
     56 H20       -45.7382   -3.9869  -57.9503 H         1 MOL         0.0471
     57 H21       -44.1684   -3.3215  -57.4017 H         1 MOL         0.0471
     58 H22       -44.7731   -4.8594  -56.7311 H         1 MOL         0.0471
     59 H23       -43.5387  -16.6361  -58.0756 H         1 MOL         0.0653
     60 H24       -44.9760  -16.3639  -57.1135 H         1 MOL         0.0653
     61 H25       -42.4280  -17.7934  -56.1662 H         1 MOL         0.0322
     62 H26       -43.8655  -17.5382  -55.1595 H         1 MOL         0.0322
     63 H27       -43.6282  -14.9431  -55.5181 H         1 MOL         0.0410
     64 H28       -42.1919  -15.2092  -56.5395 H         1 MOL         0.0410
     65 H29       -40.1867   -8.7208  -57.2152 H         1 MOL         0.4556
@<TRIPOS>BOND
     1    1    7 1
     2    1   27 3
     3    2    8 ar
     4    2   12 ar
     5    3    9 ar
     6    3   13 ar
     7    4   10 ar
     8    4   14 ar
     9    5   15 ar
    10    5   16 ar
    11    6    7 ar
    12    6   28 ar
    13    7   11 ar
    14    8    9 ar
    15    8   11 ar
    16    9   28 ar
    17   10   15 ar
    18   10   31 1
    19   11   31 1
    20   12   13 ar
    21   12   32 1
    22   13   34 1
    23   14   16 ar
    24   14   33 1
    25   15   35 1
    26   16   36 1
    27   17   19 1
    28   17   29 1
    29   18   20 1
    30   18   29 1
    31   19   30 1
    32   20   30 1
    33   21   29 1
    34   22   32 1
    35   23   33 1
    36   24   25 1
    37   24   26 1
    38   25   30 1
    39   26   34 1
    40    2   37 1
    41    3   38 1
    42    4   39 1
    43    5   40 1
    44    6   41 1
    45   17   42 1
    46   17   43 1
    47   18   44 1
    48   18   45 1
    49   19   46 1
    50   19   47 1
    51   20   48 1
    52   20   49 1
    53   21   50 1
    54   21   51 1
    55   21   52 1
    56   22   53 1
    57   22   54 1
    58   22   55 1
    59   23   56 1
    60   23   57 1
    61   23   58 1
    62   24   59 1
    63   24   60 1
    64   25   61 1
    65   25   62 1
    66   26   63 1
    67   26   64 1
    68   31   65 1
