@<TRIPOS>MOLECULE
4-(2,4-dichloro-5-methoxy-anilino)-6-methoxy-7-[3-(4-methylpiperazin-1-yl)propoxy]quinoline-3-carbonitrile
   65    68     0     0     0
SMALL
USER_CHARGES

@<TRIPOS>ATOM
      1 C1        -42.5711  -12.7351  -55.0632 C.1       1 MOL         0.2440
      2 C2        -41.4524  -13.2330  -59.8298 C.ar      1 MOL        -0.1135
      3 C3        -42.6007  -15.7585  -59.7577 C.ar      1 MOL        -0.2141
      4 C4        -42.7537  -10.5095  -59.0807 C.ar      1 MOL        -0.1806
      5 C5        -41.2978   -8.1651  -58.6721 C.ar      1 MOL        -0.0838
      6 C6        -43.1008  -14.7311  -56.3457 C.ar      1 MOL         0.4607
      7 C7        -42.5512  -13.4662  -56.2916 C.ar      1 MOL        -0.1707
      8 C8        -42.0060  -13.7194  -58.6333 C.ar      1 MOL        -0.1738
      9 C9        -42.5913  -15.0021  -58.5889 C.ar      1 MOL         0.4310
     10 C10       -41.7128  -10.4878  -58.1525 C.ar      1 MOL         0.1952
     11 C11       -41.9965  -12.9575  -57.4571 C.ar      1 MOL         0.2624
     12 C12       -41.4754  -14.0109  -60.9838 C.ar      1 MOL         0.0881
     13 C13       -42.0503  -15.2751  -60.9473 C.ar      1 MOL         0.1210
     14 C14       -43.0666   -9.3590  -59.8047 C.ar      1 MOL         0.1334
     15 C15       -40.9849   -9.3156  -57.9481 C.ar      1 MOL        -0.0295
     16 C16       -42.3387   -8.1868  -59.6004 C.ar      1 MOL        -0.0184
     17 C17       -44.0580  -11.8068  -64.6441 C.3       1 MOL         0.1674
     18 C18       -45.9520  -13.2339  -65.0822 C.3       1 MOL         0.1674
     19 C19       -43.1121  -12.9875  -64.8887 C.3       1 MOL         0.1711
     20 C20       -45.0056  -14.4140  -65.3280 C.3       1 MOL         0.1711
     21 C21       -46.2009  -10.8371  -65.1763 C.3       1 MOL         0.1580
     22 C22       -39.5534  -13.7956  -62.3679 C.3       1 MOL         0.1163
     23 C23       -44.7715  -10.6531  -60.8412 C.3       1 MOL         0.1155
     24 C24       -43.2965  -16.6435  -64.0526 C.3       1 MOL        -0.0888
     25 C25       -42.8640  -15.3843  -64.7919 C.3       1 MOL         0.1796
     26 C26       -43.3678  -16.4472  -62.5430 C.3       1 MOL         0.1327
     27 N1        -42.5873  -12.1416  -54.0661 N.1       1 MOL        -0.3586
     28 N2        -43.1304  -15.4984  -57.4593 N.ar      1 MOL        -0.6627
     29 N3        -45.2984  -11.9619  -65.4138 N.3       1 MOL        -0.7336
     30 N4        -43.7664  -14.2590  -64.5565 N.3       1 MOL        -0.7378
     31 N5        -41.4218  -11.6604  -57.4398 N.pl3     1 MOL        -0.6909
     32 O1        -40.9348  -13.5253  -62.1350 O.3       1 MOL        -0.3321
     33 O2        -44.0888   -9.4088  -60.7053 O.3       1 MOL        -0.3373
     34 O3        -42.0844  -16.0587  -62.0712 O.3       1 MOL        -0.3346
     35 Cl1       -39.6884   -9.2459  -56.8085 Cl        1 MOL        -0.0755
     36 Cl2       -42.7046   -6.7499  -60.4821 Cl        1 MOL        -0.0644
     37 H1        -40.9968  -12.2465  -59.8825 H         1 MOL         0.1532
     38 H2        -43.0469  -16.7520  -59.7484 H         1 MOL         0.1655
     39 H3        -43.3244  -11.4210  -59.2438 H         1 MOL         0.1571
     40 H4        -40.7304   -7.2503  -58.5132 H         1 MOL         0.1657
     41 H5        -43.5533  -15.1937  -55.4729 H         1 MOL         0.0371
     42 H6        -44.2716  -11.7215  -63.5699 H         1 MOL         0.0377
     43 H7        -43.5458  -10.8859  -64.9485 H         1 MOL         0.0377
     44 H8        -46.8409  -13.3684  -65.7105 H         1 MOL         0.0377
     45 H9        -46.2875  -13.2412  -64.0362 H         1 MOL         0.0377
     46 H10       -42.7763  -12.9810  -65.9347 H         1 MOL         0.0370
     47 H11       -42.2233  -12.8529  -64.2603 H         1 MOL         0.0370
     48 H12       -45.5179  -15.3352  -65.0248 H         1 MOL         0.0370
     49 H13       -44.7911  -14.4980  -66.4021 H         1 MOL         0.0370
     50 H14       -47.1199  -10.9641  -65.7544 H         1 MOL         0.0322
     51 H15       -45.7237   -9.8999  -65.4755 H         1 MOL         0.0322
     52 H16       -46.4581  -10.7763  -64.1154 H         1 MOL         0.0322
     53 H17       -39.2501  -13.3525  -63.3196 H         1 MOL         0.0460
     54 H18       -39.3912  -14.8762  -62.3887 H         1 MOL         0.0460
     55 H19       -38.9640  -13.3561  -61.5597 H         1 MOL         0.0460
     56 H20       -45.5618  -10.5561  -61.5896 H         1 MOL         0.0471
     57 H21       -45.2003  -10.9416  -59.8782 H         1 MOL         0.0471
     58 H22       -44.0591  -11.4161  -61.1638 H         1 MOL         0.0471
     59 H23       -44.2828  -16.9568  -64.4171 H         1 MOL         0.0653
     60 H24       -42.6157  -17.4738  -64.2792 H         1 MOL         0.0653
     61 H25       -41.8707  -15.0724  -64.4546 H         1 MOL         0.0322
     62 H26       -42.8198  -15.5575  -65.8719 H         1 MOL         0.0322
     63 H27       -44.0840  -15.6633  -62.2781 H         1 MOL         0.0410
     64 H28       -43.6551  -17.3772  -62.0421 H         1 MOL         0.0410
     65 H29       -40.6555  -11.5728  -56.7840 H         1 MOL         0.4556
@<TRIPOS>BOND
     1    1    7 1
     2    1   27 3
     3    2    8 ar
     4    2   12 ar
     5    3    9 ar
     6    3   13 ar
     7    4   10 ar
     8    4   14 ar
     9    5   15 ar
    10    5   16 ar
    11    6    7 ar
    12    6   28 ar
    13    7   11 ar
    14    8    9 ar
    15    8   11 ar
    16    9   28 ar
    17   10   15 ar
    18   10   31 1
    19   11   31 1
    20   12   13 ar
    21   12   32 1
    22   13   34 1
    23   14   16 ar
    24   14   33 1
    25   15   35 1
    26   16   36 1
    27   17   19 1
    28   17   29 1
    29   18   20 1
    30   18   29 1
    31   19   30 1
    32   20   30 1
    33   21   29 1
    34   22   32 1
    35   23   33 1
    36   24   25 1
    37   24   26 1
    38   25   30 1
    39   26   34 1
    40    2   37 1
    41    3   38 1
    42    4   39 1
    43    5   40 1
    44    6   41 1
    45   17   42 1
    46   17   43 1
    47   18   44 1
    48   18   45 1
    49   19   46 1
    50   19   47 1
    51   20   48 1
    52   20   49 1
    53   21   50 1
    54   21   51 1
    55   21   52 1
    56   22   53 1
    57   22   54 1
    58   22   55 1
    59   23   56 1
    60   23   57 1
    61   23   58 1
    62   24   59 1
    63   24   60 1
    64   25   61 1
    65   25   62 1
    66   26   63 1
    67   26   64 1
    68   31   65 1
