@<TRIPOS>MOLECULE
~{N}-methyl-2-[[3-[(~{E})-2-(2-pyridyl)vinyl]-1~{H}-indazol-6-yl]sulfanyl]benzamide
   46    49     0     0     0
SMALL
USER_CHARGES

@<TRIPOS>ATOM
      1 C1        -38.1294   -6.4521  -56.5437 C.ar      1 MOL        -0.1467
      2 C2        -37.8848   -7.7904  -56.8514 C.ar      1 MOL        -0.0974
      3 C3        -43.0476  -18.7259  -57.7969 C.ar      1 MOL        -0.0928
      4 C4        -44.0606  -19.1386  -56.9385 C.ar      1 MOL        -0.2453
      5 C5        -42.1859  -12.2898  -58.3072 C.ar      1 MOL        -0.0799
      6 C6        -39.1878   -5.7784  -57.1534 C.ar      1 MOL        -0.0939
      7 C7        -38.6986   -8.4551  -57.7688 C.ar      1 MOL        -0.1576
      8 C8        -41.6922  -11.2364  -59.0870 C.ar      1 MOL        -0.1081
      9 C9        -42.6099  -17.4066  -57.7630 C.ar      1 MOL        -0.2368
     10 C10       -41.5795   -9.7681  -57.1480 C.ar      1 MOL        -0.0800
     11 C11       -44.5987  -18.2008  -56.0721 C.ar      1 MOL         0.3986
     12 C12       -42.3770  -12.0745  -56.9321 C.ar      1 MOL        -0.1733
     13 C13       -40.0015   -6.4431  -58.0709 C.ar      1 MOL        -0.1327
     14 C14       -42.0728  -10.8313  -56.3886 C.ar      1 MOL         0.0548
     15 C15       -41.3948   -9.9978  -58.5154 C.ar      1 MOL        -0.0350
     16 C16       -39.7569   -7.7814  -58.3786 C.ar      1 MOL         0.0286
     17 C17       -43.2131  -16.5462  -56.8598 C.ar      1 MOL         0.4459
     18 C18       -42.8348  -12.8338  -55.8339 C.2       1 MOL         0.3775
     19 C19       -42.7840  -15.1384  -56.7852 C.2       1 MOL        -0.1979
     20 C20       -43.2617  -14.1850  -55.9180 C.2       1 MOL        -0.1776
     21 C21       -41.0932   -5.6900  -58.6782 C.2       1 MOL         0.6672
     22 C22       -43.2074   -4.4159  -58.2616 C.3       1 MOL         0.0802
     23 N1        -44.1997  -16.9107  -56.0104 N.ar      1 MOL        -0.6566
     24 N2        -42.8274  -12.1467  -54.6895 N.2       1 MOL        -0.3948
     25 N3        -42.3624  -10.9405  -55.0552 N.pl3     1 MOL        -0.3861
     26 N4        -42.0555   -5.1639  -57.8116 N.am      1 MOL        -0.5743
     27 O1        -41.1522   -5.5554  -59.9110 O.2       1 MOL        -0.5831
     28 S1        -40.7668   -8.6806  -59.5455 S.3       1 MOL        -0.0864
     29 H1        -37.4949   -5.9343  -55.8302 H         1 MOL         0.1379
     30 H2        -37.0601   -8.3145  -56.3773 H         1 MOL         0.1360
     31 H3        -42.5996  -19.4318  -58.4898 H         1 MOL         0.1387
     32 H4        -44.4177  -20.1620  -56.9482 H         1 MOL         0.1440
     33 H5        -42.4125  -13.2473  -58.7665 H         1 MOL         0.1450
     34 H6        -39.3670   -4.7350  -56.9051 H         1 MOL         0.1409
     35 H7        -38.4887   -9.4977  -57.9948 H         1 MOL         0.1467
     36 H8        -41.5454  -11.4065  -60.1517 H         1 MOL         0.1542
     37 H9        -41.8195  -17.0772  -58.4300 H         1 MOL         0.1438
     38 H10       -41.3539   -8.8123  -56.6863 H         1 MOL         0.1523
     39 H11       -45.3922  -18.4716  -55.3833 H         1 MOL         0.0235
     40 H12       -41.9896  -14.8622  -57.4743 H         1 MOL         0.1617
     41 H13       -44.0370  -14.5254  -55.1981 H         1 MOL         0.1330
     42 H14       -42.9914   -3.3446  -58.2403 H         1 MOL         0.0431
     43 H15       -44.0645   -4.6151  -57.6126 H         1 MOL         0.0431
     44 H16       -43.4681   -4.7021  -59.2841 H         1 MOL         0.0431
     45 H17       -42.2652  -10.2294  -54.3413 H         1 MOL         0.4865
     46 H18       -41.9910   -5.3585  -56.8178 H         1 MOL         0.3101
@<TRIPOS>BOND
     1    1    2 ar
     2    1    6 ar
     3    2    7 ar
     4    3    4 ar
     5    3    9 ar
     6    4   11 ar
     7    5    8 ar
     8    5   12 ar
     9    6   13 ar
    10    7   16 ar
    11    8   15 ar
    12    9   17 ar
    13   10   14 ar
    14   10   15 ar
    15   11   23 ar
    16   12   14 ar
    17   12   18 1
    18   13   16 ar
    19   13   21 1
    20   14   25 1
    21   15   28 1
    22   16   28 1
    23   17   19 1
    24   17   23 ar
    25   18   20 1
    26   18   24 2
    27   19   20 2
    28   21   26 am
    29   21   27 2
    30   22   26 1
    31   24   25 1
    32    1   29 1
    33    2   30 1
    34    3   31 1
    35    4   32 1
    36    5   33 1
    37    6   34 1
    38    7   35 1
    39    8   36 1
    40    9   37 1
    41   10   38 1
    42   11   39 1
    43   19   40 1
    44   20   41 1
    45   22   42 1
    46   22   43 1
    47   22   44 1
    48   25   45 1
    49   26   46 1
