@<TRIPOS>MOLECULE
4-[(4-methylpiperazin-1-yl)methyl]-~{N}-[4-methyl-3-[[4-(3-pyridyl)pyrimidin-2-yl]amino]phenyl]benzamide
   68    72     0     0     0
SMALL
USER_CHARGES

@<TRIPOS>ATOM
      1 C1        -44.0416  -14.3480  -55.7862 C.ar      1 MOL        -0.1500
      2 C2        -43.7029  -13.1093  -55.2426 C.ar      1 MOL        -0.1500
      3 C3        -44.5718   -1.5587  -59.2559 C.ar      1 MOL        -0.1500
      4 C4        -42.4053   -0.9297  -60.1209 C.ar      1 MOL        -0.1500
      5 C5        -45.0993   -0.3378  -59.6720 C.ar      1 MOL        -0.1500
      6 C6        -42.9383    0.2974  -60.5330 C.ar      1 MOL        -0.1500
      7 C7        -38.7570   -5.3153  -57.0896 C.ar      1 MOL        -0.1500
      8 C8        -39.4451   -4.2559  -57.6878 C.ar      1 MOL        -0.1500
      9 C9        -42.8753  -10.3386  -54.2328 C.ar      1 MOL        -0.1500
     10 C10       -41.3826   -5.6500  -57.9145 C.ar      1 MOL        -0.1500
     11 C11       -43.8009  -14.5624  -57.1307 C.ar      1 MOL         0.1600
     12 C12       -42.4424   -9.0497  -53.9759 C.ar      1 MOL         0.1600
     13 C13       -42.9466  -12.4537  -57.3862 C.ar      1 MOL         0.1600
     14 C14       -43.1371  -12.1077  -56.0397 C.ar      1 MOL         0.0000
     15 C15       -43.2251   -1.8649  -59.4858 C.ar      1 MOL         0.0862
     16 C16       -44.2938    0.5999  -60.3283 C.ar      1 MOL        -0.1435
     17 C17       -39.3744   -6.5572  -56.8902 C.ar      1 MOL        -0.1435
     18 C18       -40.7715   -4.4076  -58.0969 C.ar      1 MOL         0.1170
     19 C19       -40.7032   -6.7255  -57.3112 C.ar      1 MOL         0.1000
     20 C20       -42.7529  -10.7747  -55.5379 C.ar      1 MOL         0.3100
     21 C21       -41.8452   -8.7068  -56.1586 C.ar      1 MOL         0.7200
     22 C22       -42.7462   -3.2008  -59.0492 C.2       1 MOL         0.5438
     23 C23       -44.2570    2.0088  -64.5224 C.3       1 MOL         0.2700
     24 C24       -44.5004    4.2667  -63.7075 C.3       1 MOL         0.2700
     25 C25       -44.8086    1.4751  -63.1956 C.3       1 MOL         0.2700
     26 C26       -45.0236    3.7185  -62.3757 C.3       1 MOL         0.2700
     27 C27       -38.5971   -7.6755  -56.2563 C.3       1 MOL         0.1435
     28 C28       -44.2516    3.8563  -66.0696 C.3       1 MOL         0.2700
     29 C29       -44.9100    1.9071  -60.7823 C.3       1 MOL         0.4135
     30 N1        -43.2588  -13.6434  -57.9492 N.ar      1 MOL        -0.6200
     31 N2        -41.9247   -8.2153  -54.9067 N.ar      1 MOL        -0.6200
     32 N3        -42.2453   -9.9542  -56.4844 N.ar      1 MOL        -0.6200
     33 N4        -44.7918    3.3440  -64.8115 N.3       1 MOL        -0.8100
     34 N5        -44.4547    2.3895  -62.0986 N.3       1 MOL        -0.8100
     35 N6        -41.3716   -7.9539  -57.2377 N.pl3     1 MOL        -0.6000
     36 N7        -41.4130   -3.2795  -58.6698 N.am      1 MOL        -0.5470
     37 O1        -43.5722   -4.1091  -59.0393 O.2       1 MOL        -0.5700
     38 H1        -44.4821  -15.1225  -55.1695 H         1 MOL         0.1500
     39 H2        -43.8955  -12.9511  -54.1851 H         1 MOL         0.1500
     40 H3        -45.2309   -2.2639  -58.7559 H         1 MOL         0.1500
     41 H4        -41.3568   -1.1307  -60.3202 H         1 MOL         0.1500
     42 H5        -46.1499   -0.1299  -59.4853 H         1 MOL         0.1500
     43 H6        -42.2844    1.0093  -61.0309 H         1 MOL         0.1500
     44 H7        -37.7245   -5.1617  -56.7860 H         1 MOL         0.1500
     45 H8        -38.9276   -3.3103  -57.8281 H         1 MOL         0.1500
     46 H9        -43.2786  -10.9469  -53.4332 H         1 MOL         0.1500
     47 H10       -42.4031   -5.8355  -58.2319 H         1 MOL         0.1500
     48 H11       -44.0450  -15.5084  -57.5999 H         1 MOL         0.1500
     49 H12       -42.5070   -8.6396  -52.9726 H         1 MOL         0.1500
     50 H13       -42.5111  -11.7553  -58.0974 H         1 MOL         0.1500
     51 H14       -43.1589    2.0256  -64.4837 H         1 MOL         0.0000
     52 H15       -44.5427    1.3126  -65.3201 H         1 MOL         0.0000
     53 H16       -44.9857    5.2317  -63.8975 H         1 MOL         0.0000
     54 H17       -43.4209    4.4528  -63.6267 H         1 MOL         0.0000
     55 H18       -45.8969    1.3433  -63.2638 H         1 MOL         0.0000
     56 H19       -44.3733    0.4828  -63.0351 H         1 MOL         0.0000
     57 H20       -44.7444    4.4201  -61.5808 H         1 MOL         0.0000
     58 H21       -46.1216    3.6742  -62.3989 H         1 MOL         0.0000
     59 H22       -39.0395   -7.9458  -55.2925 H         1 MOL         0.0000
     60 H23       -38.5810   -8.5521  -56.9115 H         1 MOL         0.0000
     61 H24       -37.5584   -7.3850  -56.0678 H         1 MOL         0.0000
     62 H25       -44.6982    4.8268  -66.3123 H         1 MOL         0.0000
     63 H26       -44.4951    3.1805  -66.8967 H         1 MOL         0.0000
     64 H27       -43.1626    3.9767  -66.0346 H         1 MOL         0.0000
     65 H28       -46.0047    1.8131  -60.7889 H         1 MOL         0.0000
     66 H29       -44.6602    2.6500  -60.0136 H         1 MOL         0.0000
     67 H30       -41.5115   -8.4037  -58.1362 H         1 MOL         0.4000
     68 H31       -40.8355   -2.4455  -58.7359 H         1 MOL         0.3700
@<TRIPOS>BOND
     1    1    2 ar
     2    1   11 ar
     3    2   14 ar
     4    3    5 ar
     5    3   15 ar
     6    4    6 ar
     7    4   15 ar
     8    5   16 ar
     9    6   16 ar
    10    7    8 ar
    11    7   17 ar
    12    8   18 ar
    13    9   12 ar
    14    9   20 ar
    15   10   18 ar
    16   10   19 ar
    17   11   30 ar
    18   12   31 ar
    19   13   14 ar
    20   13   30 ar
    21   14   20 1
    22   15   22 1
    23   16   29 1
    24   17   19 ar
    25   17   27 1
    26   18   36 1
    27   19   35 1
    28   20   32 ar
    29   21   31 ar
    30   21   32 ar
    31   21   35 1
    32   22   36 am
    33   22   37 2
    34   23   25 1
    35   23   33 1
    36   24   26 1
    37   24   33 1
    38   25   34 1
    39   26   34 1
    40   28   33 1
    41   29   34 1
    42    1   38 1
    43    2   39 1
    44    3   40 1
    45    4   41 1
    46    5   42 1
    47    6   43 1
    48    7   44 1
    49    8   45 1
    50    9   46 1
    51   10   47 1
    52   11   48 1
    53   12   49 1
    54   13   50 1
    55   23   51 1
    56   23   52 1
    57   24   53 1
    58   24   54 1
    59   25   55 1
    60   25   56 1
    61   26   57 1
    62   26   58 1
    63   27   59 1
    64   27   60 1
    65   27   61 1
    66   28   62 1
    67   28   63 1
    68   28   64 1
    69   29   65 1
    70   29   66 1
    71   35   67 1
    72   36   68 1
