@<TRIPOS>MOLECULE
4-[(4-methylpiperazin-1-yl)methyl]-~{N}-[4-methyl-3-[[4-(3-pyridyl)pyrimidin-2-yl]amino]phenyl]benzamide
   68    72     0     0     0
SMALL
USER_CHARGES

@<TRIPOS>ATOM
      1 C1        -39.5458   -8.7144  -59.3447 C.ar      1 MOL        -0.2506
      2 C2        -40.1392   -9.1705  -58.1729 C.ar      1 MOL        -0.0711
      3 C3        -42.0857  -14.7403  -63.9915 C.ar      1 MOL        -0.0933
      4 C4        -44.1367  -13.7333  -63.2064 C.ar      1 MOL        -0.0933
      5 C5        -42.2570  -14.1233  -65.2306 C.ar      1 MOL        -0.1271
      6 C6        -44.3080  -13.1162  -64.4456 C.ar      1 MOL        -0.1271
      7 C7        -43.2960  -16.5564  -57.5041 C.ar      1 MOL        -0.0880
      8 C8        -43.3224  -16.2107  -58.8551 C.ar      1 MOL        -0.1675
      9 C9        -42.2657   -9.3050  -55.9091 C.ar      1 MOL        -0.4095
     10 C10       -43.4760  -13.8755  -58.2546 C.ar      1 MOL        -0.1860
     11 C11       -40.2946   -8.7565  -60.5097 C.ar      1 MOL         0.4040
     12 C12       -42.8924   -9.8812  -54.8231 C.ar      1 MOL         0.4616
     13 C13       -42.1086   -9.6480  -59.4176 C.ar      1 MOL         0.4307
     14 C14       -41.4447   -9.6479  -58.2015 C.ar      1 MOL        -0.2733
     15 C15       -43.0256  -14.5454  -62.9794 C.ar      1 MOL        -0.1523
     16 C16       -43.3682  -13.3112  -65.4577 C.ar      1 MOL        -0.0603
     17 C17       -43.3597  -15.5617  -56.5283 C.ar      1 MOL        -0.1448
     18 C18       -43.4124  -14.8703  -59.2304 C.ar      1 MOL         0.0847
     19 C19       -43.4496  -14.2213  -56.9035 C.ar      1 MOL         0.1772
     20 C20       -42.0879  -10.1285  -57.0021 C.ar      1 MOL         0.5363
     21 C21       -43.0859  -11.8617  -55.9218 C.ar      1 MOL         0.8872
     22 C22       -42.8477  -15.1879  -61.6868 C.2       1 MOL         0.6835
     23 C23       -42.3002   -9.1037  -66.4313 C.3       1 MOL         0.1708
     24 C24       -44.3503   -9.0716  -67.7009 C.3       1 MOL         0.1708
     25 C25       -42.2496  -10.6307  -66.5520 C.3       1 MOL         0.1753
     26 C26       -44.2986  -10.5985  -67.8225 C.3       1 MOL         0.1753
     27 C27       -43.3292  -15.9603  -55.0887 C.3       1 MOL        -0.0528
     28 C28       -43.0498   -7.0552  -67.4594 C.3       1 MOL         0.1609
     29 C29       -43.5515  -12.6463  -66.7913 C.3       1 MOL         0.2165
     30 N1        -41.5653   -9.2131  -60.5767 N.ar      1 MOL        -0.6654
     31 N2        -43.3171  -11.1615  -54.7950 N.ar      1 MOL        -0.7391
     32 N3        -42.4870  -11.4167  -57.0429 N.ar      1 MOL        -0.7480
     33 N4        -42.9990   -8.5110  -67.5782 N.3       1 MOL        -0.7397
     34 N5        -43.6013  -11.1903  -66.6743 N.3       1 MOL        -0.7459
     35 N6        -43.5159  -13.2015  -55.9286 N.pl3     1 MOL        -0.7209
     36 N7        -43.4397  -14.5196  -60.6038 N.am      1 MOL        -0.4687
     37 O1        -42.1891  -16.2298  -61.5626 O.2       1 MOL        -0.5862
     38 H1        -38.5297   -8.3370  -59.3467 H         1 MOL         0.1463
     39 H2        -39.5725   -9.1480  -57.2453 H         1 MOL         0.1439
     40 H3        -41.2164  -15.3711  -63.8247 H         1 MOL         0.1467
     41 H4        -44.8755  -13.5743  -62.4252 H         1 MOL         0.1467
     42 H5        -41.5197  -14.2804  -66.0133 H         1 MOL         0.1452
     43 H6        -45.1766  -12.4847  -64.6136 H         1 MOL         0.1452
     44 H7        -43.2253  -17.6035  -57.2217 H         1 MOL         0.1366
     45 H8        -43.2719  -16.9939  -59.6074 H         1 MOL         0.1760
     46 H9        -41.9400   -8.2724  -55.8901 H         1 MOL         0.1589
     47 H10       -43.5466  -12.8300  -58.5477 H         1 MOL         0.1531
     48 H11       -39.8772   -8.4125  -61.4507 H         1 MOL         0.0247
     49 H12       -43.0759   -9.3121  -53.9180 H         1 MOL         0.0273
     50 H13       -43.1300  -10.0068  -59.5072 H         1 MOL         0.0334
     51 H14       -42.7886   -8.8242  -65.4877 H         1 MOL         0.0372
     52 H15       -41.2710   -8.7269  -66.3894 H         1 MOL         0.0372
     53 H16       -44.8375   -8.6708  -68.5981 H         1 MOL         0.0372
     54 H17       -44.9710   -8.7906  -66.8392 H         1 MOL         0.0372
     55 H18       -41.6292  -10.9125  -67.4137 H         1 MOL         0.0379
     56 H19       -41.7625  -11.0313  -65.6547 H         1 MOL         0.0379
     57 H20       -45.3276  -10.9756  -67.8655 H         1 MOL         0.0379
     58 H21       -43.8088  -10.8776  -68.7653 H         1 MOL         0.0379
     59 H22       -42.2955  -15.9931  -54.7260 H         1 MOL         0.0437
     60 H23       -43.8950  -15.2531  -54.4701 H         1 MOL         0.0437
     61 H24       -43.7834  -16.9479  -54.9418 H         1 MOL         0.0437
     62 H25       -43.5721   -6.6261  -68.3185 H         1 MOL         0.0323
     63 H26       -42.0376   -6.6435  -67.4213 H         1 MOL         0.0323
     64 H27       -43.5792   -6.7686  -66.5467 H         1 MOL         0.0323
     65 H28       -42.7281  -12.9025  -67.4669 H         1 MOL         0.0434
     66 H29       -44.4796  -12.9756  -67.2702 H         1 MOL         0.0434
     67 H30       -43.9606  -13.4956  -55.0650 H         1 MOL         0.4542
     68 H31       -43.9553  -13.6739  -60.8343 H         1 MOL         0.3224
@<TRIPOS>BOND
     1    1    2 ar
     2    1   11 ar
     3    2   14 ar
     4    3    5 ar
     5    3   15 ar
     6    4    6 ar
     7    4   15 ar
     8    5   16 ar
     9    6   16 ar
    10    7    8 ar
    11    7   17 ar
    12    8   18 ar
    13    9   12 ar
    14    9   20 ar
    15   10   18 ar
    16   10   19 ar
    17   11   30 ar
    18   12   31 ar
    19   13   14 ar
    20   13   30 ar
    21   14   20 1
    22   15   22 1
    23   16   29 1
    24   17   19 ar
    25   17   27 1
    26   18   36 1
    27   19   35 1
    28   20   32 ar
    29   21   31 ar
    30   21   32 ar
    31   21   35 1
    32   22   36 am
    33   22   37 2
    34   23   25 1
    35   23   33 1
    36   24   26 1
    37   24   33 1
    38   25   34 1
    39   26   34 1
    40   28   33 1
    41   29   34 1
    42    1   38 1
    43    2   39 1
    44    3   40 1
    45    4   41 1
    46    5   42 1
    47    6   43 1
    48    7   44 1
    49    8   45 1
    50    9   46 1
    51   10   47 1
    52   11   48 1
    53   12   49 1
    54   13   50 1
    55   23   51 1
    56   23   52 1
    57   24   53 1
    58   24   54 1
    59   25   55 1
    60   25   56 1
    61   26   57 1
    62   26   58 1
    63   27   59 1
    64   27   60 1
    65   27   61 1
    66   28   62 1
    67   28   63 1
    68   28   64 1
    69   29   65 1
    70   29   66 1
    71   35   67 1
    72   36   68 1
