@<TRIPOS>MOLECULE
4-[(4-methylpiperazin-1-yl)methyl]-~{N}-[4-methyl-3-[[4-(3-pyridyl)pyrimidin-2-yl]amino]phenyl]benzamide
   68    72     0     0     0
SMALL
USER_CHARGES

@<TRIPOS>ATOM
      1 C1        -45.0401  -12.6873  -64.3982 C.ar      1 MOL        -0.2506
      2 C2        -44.1761  -11.5979  -64.3971 C.ar      1 MOL        -0.0711
      3 C3        -43.2037  -14.6616  -55.5921 C.ar      1 MOL        -0.0933
      4 C4        -42.6565  -14.6957  -57.9451 C.ar      1 MOL        -0.0933
      5 C5        -43.2742  -16.0546  -55.5883 C.ar      1 MOL        -0.1271
      6 C6        -42.7270  -16.0888  -57.9412 C.ar      1 MOL        -0.1271
      7 C7        -41.3702   -8.3675  -57.1503 C.ar      1 MOL        -0.0880
      8 C8        -41.6732   -9.7097  -56.9223 C.ar      1 MOL        -0.1675
      9 C9        -41.9019   -9.7400  -64.4998 C.ar      1 MOL        -0.4095
     10 C10       -41.3510  -10.1813  -59.2698 C.ar      1 MOL        -0.1860
     11 C11       -44.9487  -13.5886  -63.3499 C.ar      1 MOL         0.4040
     12 C12       -41.0345   -8.6787  -64.3403 C.ar      1 MOL         0.4616
     13 C13       -43.2484  -12.4021  -62.3602 C.ar      1 MOL         0.4307
     14 C14       -43.2600  -11.4453  -63.3623 C.ar      1 MOL        -0.2733
     15 C15       -42.8949  -13.9821  -56.7705 C.ar      1 MOL        -0.1523
     16 C16       -43.0359  -16.7682  -56.7628 C.ar      1 MOL        -0.0603
     17 C17       -41.0576   -7.9320  -58.4381 C.ar      1 MOL        -0.1448
     18 C18       -41.6636  -10.6167  -57.9820 C.ar      1 MOL         0.0847
     19 C19       -41.0480   -8.8390  -59.4979 C.ar      1 MOL         0.1772
     20 C20       -42.3498  -10.3255  -63.3333 C.ar      1 MOL         0.5363
     21 C21       -41.1359   -8.8707  -62.0775 C.ar      1 MOL         0.8872
     22 C22       -42.8206  -12.5296  -56.7755 C.2       1 MOL         0.6835
     23 C23       -45.4764  -20.6715  -58.4526 C.3       1 MOL         0.1708
     24 C24       -46.7684  -19.1191  -57.1347 C.3       1 MOL         0.1708
     25 C25       -44.1902  -20.1575  -57.7966 C.3       1 MOL         0.1753
     26 C26       -45.4820  -18.6063  -56.4782 C.3       1 MOL         0.1753
     27 C27       -40.7367   -6.4889  -58.6537 C.3       1 MOL        -0.0528
     28 C28       -47.8483  -21.0074  -58.1757 C.3       1 MOL         0.1609
     29 C29       -43.1108  -18.2677  -56.7579 C.3       1 MOL         0.2165
     30 N1        -44.0719  -13.4737  -62.3272 N.ar      1 MOL        -0.6654
     31 N2        -40.6289   -8.2159  -63.1395 N.ar      1 MOL        -0.7391
     32 N3        -41.9857   -9.9151  -62.1007 N.ar      1 MOL        -0.7480
     33 N4        -46.6219  -20.5204  -57.5471 N.3       1 MOL        -0.7397
     34 N5        -44.3374  -18.7561  -57.3850 N.3       1 MOL        -0.7459
     35 N6        -40.7347   -8.4150  -60.8082 N.pl3     1 MOL        -0.7209
     36 N7        -41.9722  -11.9807  -57.7496 N.am      1 MOL        -0.4687
     37 O1        -43.4398  -11.8430  -55.9510 O.2       1 MOL        -0.5862
     38 H1        -45.7631  -12.8267  -65.1936 H         1 MOL         0.1463
     39 H2        -44.2279  -10.8764  -65.2087 H         1 MOL         0.1439
     40 H3        -43.3910  -14.1149  -54.6715 H         1 MOL         0.1467
     41 H4        -42.4152  -14.1769  -58.8691 H         1 MOL         0.1467
     42 H5        -43.5152  -16.5758  -54.6656 H         1 MOL         0.1452
     43 H6        -42.5394  -16.6369  -58.8609 H         1 MOL         0.1452
     44 H7        -41.3799   -7.6686  -56.3181 H         1 MOL         0.1366
     45 H8        -41.9150  -10.0385  -55.9146 H         1 MOL         0.1760
     46 H9        -42.2023  -10.0801  -65.4831 H         1 MOL         0.1589
     47 H10       -41.3439  -10.8889  -60.0964 H         1 MOL         0.1531
     48 H11       -45.6001  -14.4555  -63.3046 H         1 MOL         0.0247
     49 H12       -40.6293   -8.1551  -65.1996 H         1 MOL         0.0273
     50 H13       -42.5581  -12.3401  -61.5237 H         1 MOL         0.0334
     51 H14       -45.6491  -20.1355  -59.3958 H         1 MOL         0.0372
     52 H15       -45.3373  -21.7308  -58.7006 H         1 MOL         0.0372
     53 H16       -47.5851  -19.0302  -56.4081 H         1 MOL         0.0372
     54 H17       -47.0240  -18.4826  -57.9928 H         1 MOL         0.0372
     55 H18       -43.9340  -20.7934  -56.9382 H         1 MOL         0.0379
     56 H19       -43.3735  -20.2464  -58.5233 H         1 MOL         0.0379
     57 H20       -45.6210  -17.5473  -56.2290 H         1 MOL         0.0379
     58 H21       -45.3087  -19.1436  -55.5358 H         1 MOL         0.0379
     59 H22       -39.6610   -6.3174  -58.5330 H         1 MOL         0.0437
     60 H23       -41.0326   -6.1634  -59.6584 H         1 MOL         0.0437
     61 H24       -41.2749   -5.8529  -57.9402 H         1 MOL         0.0437
     62 H25       -48.6932  -20.8896  -57.4922 H         1 MOL         0.0323
     63 H26       -47.7475  -22.0656  -58.4315 H         1 MOL         0.0323
     64 H27       -48.0539  -20.4440  -59.0898 H         1 MOL         0.0323
     65 H28       -42.2610  -18.6986  -57.2985 H         1 MOL         0.0434
     66 H29       -43.0785  -18.6595  -55.7358 H         1 MOL         0.0434
     67 H30       -40.0943   -7.6281  -60.8366 H         1 MOL         0.4542
     68 H31       -41.5199  -12.6484  -58.3692 H         1 MOL         0.3224
@<TRIPOS>BOND
     1    1    2 ar
     2    1   11 ar
     3    2   14 ar
     4    3    5 ar
     5    3   15 ar
     6    4    6 ar
     7    4   15 ar
     8    5   16 ar
     9    6   16 ar
    10    7    8 ar
    11    7   17 ar
    12    8   18 ar
    13    9   12 ar
    14    9   20 ar
    15   10   18 ar
    16   10   19 ar
    17   11   30 ar
    18   12   31 ar
    19   13   14 ar
    20   13   30 ar
    21   14   20 1
    22   15   22 1
    23   16   29 1
    24   17   19 ar
    25   17   27 1
    26   18   36 1
    27   19   35 1
    28   20   32 ar
    29   21   31 ar
    30   21   32 ar
    31   21   35 1
    32   22   36 am
    33   22   37 2
    34   23   25 1
    35   23   33 1
    36   24   26 1
    37   24   33 1
    38   25   34 1
    39   26   34 1
    40   28   33 1
    41   29   34 1
    42    1   38 1
    43    2   39 1
    44    3   40 1
    45    4   41 1
    46    5   42 1
    47    6   43 1
    48    7   44 1
    49    8   45 1
    50    9   46 1
    51   10   47 1
    52   11   48 1
    53   12   49 1
    54   13   50 1
    55   23   51 1
    56   23   52 1
    57   24   53 1
    58   24   54 1
    59   25   55 1
    60   25   56 1
    61   26   57 1
    62   26   58 1
    63   27   59 1
    64   27   60 1
    65   27   61 1
    66   28   62 1
    67   28   63 1
    68   28   64 1
    69   29   65 1
    70   29   66 1
    71   35   67 1
    72   36   68 1
