@<TRIPOS>MOLECULE
~{N}-(3-chloro-4-fluoro-phenyl)-7-methoxy-6-(3-morpholinopropoxy)quinazolin-4-amine
   55    58     0     0     0
SMALL
USER_CHARGES

@<TRIPOS>ATOM
      1 C1        -41.2557   -8.3833  -59.7907 C.ar      1 MOL        -0.0786
      2 C2        -40.4276   -7.3036  -60.0974 C.ar      1 MOL        -0.1504
      3 C3        -42.5302  -12.8567  -57.8488 C.ar      1 MOL        -0.1130
      4 C4        -43.6175  -13.6454  -55.4173 C.ar      1 MOL        -0.1819
      5 C5        -40.2571   -8.5259  -57.5954 C.ar      1 MOL        -0.1435
      6 C6        -43.3380  -10.1034  -54.9350 C.ar      1 MOL         0.6680
      7 C7        -42.8061  -11.9061  -56.8506 C.ar      1 MOL        -0.2849
      8 C8        -43.3557  -12.2921  -55.6172 C.ar      1 MOL         0.4333
      9 C9        -41.1705   -8.9944  -58.5397 C.ar      1 MOL         0.1157
     10 C10       -42.8017  -14.2024  -57.6221 C.ar      1 MOL         0.0877
     11 C11       -43.3460  -14.5968  -56.4050 C.ar      1 MOL         0.0950
     12 C12       -39.5141   -6.8351  -59.1530 C.ar      1 MOL         0.1283
     13 C13       -39.4289   -7.4462  -57.9020 C.ar      1 MOL        -0.0096
     14 C14       -42.5583  -10.5460  -57.0132 C.ar      1 MOL         0.6927
     15 C15       -38.7043  -16.2210  -61.1098 C.3       1 MOL         0.1373
     16 C16       -38.8390  -17.2166  -58.9213 C.3       1 MOL         0.1373
     17 C17       -37.3186  -15.6911  -60.7522 C.3       1 MOL         0.1276
     18 C18       -37.4506  -16.6623  -58.6150 C.3       1 MOL         0.1276
     19 C19       -42.5813  -16.6895  -55.5734 C.3       1 MOL         0.1191
     20 C20       -41.7734  -15.7950  -60.7707 C.3       1 MOL        -0.0919
     21 C21       -40.8478  -16.8670  -60.2107 C.3       1 MOL         0.1801
     22 C22       -41.9752  -14.6286  -59.8109 C.3       1 MOL         0.1312
     23 N1        -43.6232  -11.3915  -54.6554 N.ar      1 MOL        -0.7055
     24 N2        -42.8141   -9.6179  -56.0720 N.ar      1 MOL        -0.7528
     25 N3        -39.5187  -16.3490  -59.8932 N.3       1 MOL        -0.7374
     26 N4        -42.0041  -10.0812  -58.2319 N.pl3     1 MOL        -0.7173
     27 O1        -36.6812  -16.5584  -59.8136 O.3       1 MOL        -0.4163
     28 O2        -43.6200  -15.9090  -56.1614 O.3       1 MOL        -0.3500
     29 O3        -42.5303  -15.1238  -58.5997 O.3       1 MOL        -0.3428
     30 F1        -38.7244   -5.7968  -59.4625 F         1 MOL        -0.1242
     31 Cl1       -38.3023   -6.8739  -56.7329 Cl        1 MOL        -0.0642
     32 H1        -41.9649   -8.7400  -60.5336 H         1 MOL         0.1696
     33 H2        -40.4939   -6.8284  -61.0716 H         1 MOL         0.1585
     34 H3        -42.1048  -12.5662  -58.8065 H         1 MOL         0.1459
     35 H4        -44.0437  -13.9735  -54.4704 H         1 MOL         0.1707
     36 H5        -40.1934   -9.0055  -56.6211 H         1 MOL         0.1514
     37 H6        -43.5559   -9.3829  -54.1561 H         1 MOL         0.0566
     38 H7        -39.1796  -15.5288  -61.8142 H         1 MOL         0.0402
     39 H8        -38.6051  -17.1957  -61.6049 H         1 MOL         0.0402
     40 H9        -38.7454  -18.2350  -59.3206 H         1 MOL         0.0402
     41 H10       -39.4142  -17.2680  -57.9898 H         1 MOL         0.0402
     42 H11       -36.6923  -15.6529  -61.6494 H         1 MOL         0.0537
     43 H12       -37.3683  -14.6767  -60.3385 H         1 MOL         0.0537
     44 H13       -37.5041  -15.6807  -58.1283 H         1 MOL         0.0537
     45 H14       -36.9202  -17.3387  -57.9372 H         1 MOL         0.0537
     46 H15       -42.9304  -17.7154  -55.4327 H         1 MOL         0.0460
     47 H16       -42.2975  -16.2547  -54.6117 H         1 MOL         0.0460
     48 H17       -41.7159  -16.6898  -56.2404 H         1 MOL         0.0460
     49 H18       -41.3576  -15.4131  -61.7115 H         1 MOL         0.0611
     50 H19       -42.7488  -16.2271  -61.0276 H         1 MOL         0.0611
     51 H20       -41.2616  -17.2738  -59.2827 H         1 MOL         0.0341
     52 H21       -40.7250  -17.6911  -60.9207 H         1 MOL         0.0341
     53 H22       -41.0256  -14.1367  -59.5788 H         1 MOL         0.0501
     54 H23       -42.6652  -13.8912  -60.2333 H         1 MOL         0.0501
     55 H24       -42.2631  -10.6475  -59.0310 H         1 MOL         0.4263
@<TRIPOS>BOND
     1    1    2 ar
     2    1    9 ar
     3    2   12 ar
     4    3    7 ar
     5    3   10 ar
     6    4    8 ar
     7    4   11 ar
     8    5    9 ar
     9    5   13 ar
    10    6   23 ar
    11    6   24 ar
    12    7    8 ar
    13    7   14 ar
    14    8   23 ar
    15    9   26 1
    16   10   11 ar
    17   10   29 1
    18   11   28 1
    19   12   13 ar
    20   12   30 1
    21   13   31 1
    22   14   24 ar
    23   14   26 1
    24   15   17 1
    25   15   25 1
    26   16   18 1
    27   16   25 1
    28   17   27 1
    29   18   27 1
    30   19   28 1
    31   20   21 1
    32   20   22 1
    33   21   25 1
    34   22   29 1
    35    1   32 1
    36    2   33 1
    37    3   34 1
    38    4   35 1
    39    5   36 1
    40    6   37 1
    41   15   38 1
    42   15   39 1
    43   16   40 1
    44   16   41 1
    45   17   42 1
    46   17   43 1
    47   18   44 1
    48   18   45 1
    49   19   46 1
    50   19   47 1
    51   19   48 1
    52   20   49 1
    53   20   50 1
    54   21   51 1
    55   21   52 1
    56   22   53 1
    57   22   54 1
    58   26   55 1
