@<TRIPOS>MOLECULE
~{N}-methyl-2-[[3-[(~{E})-2-(2-pyridyl)vinyl]-1~{H}-indazol-6-yl]sulfanyl]benzamide
   46    49     0     0     0
SMALL
USER_CHARGES

@<TRIPOS>ATOM
      1 C1        -44.2801  -18.9897  -55.2909 C.ar      1 MOL        -0.1467
      2 C2        -43.0526  -18.3394  -55.4174 C.ar      1 MOL        -0.0974
      3 C3        -39.6573   -6.8105  -59.5759 C.ar      1 MOL        -0.0928
      4 C4        -39.2567   -6.0868  -58.4583 C.ar      1 MOL        -0.2453
      5 C5        -41.8696  -12.8296  -58.4351 C.ar      1 MOL        -0.0799
      6 C6        -45.2184  -18.9148  -56.3204 C.ar      1 MOL        -0.0939
      7 C7        -42.7634  -17.6142  -56.5733 C.ar      1 MOL        -0.1576
      8 C8        -42.1013  -14.1071  -58.9603 C.ar      1 MOL        -0.1081
      9 C9        -40.3905   -7.9807  -59.4133 C.ar      1 MOL        -0.2368
     10 C10       -43.7241  -14.6014  -57.2137 C.ar      1 MOL        -0.0800
     11 C11       -39.6118   -6.5719  -57.2099 C.ar      1 MOL         0.3986
     12 C12       -42.5760  -12.4385  -57.2855 C.ar      1 MOL        -0.1733
     13 C13       -44.9292  -18.1897  -57.4763 C.ar      1 MOL        -0.1327
     14 C14       -43.4782  -13.3238  -56.7062 C.ar      1 MOL         0.0548
     15 C15       -43.0132  -14.9764  -58.3585 C.ar      1 MOL        -0.0350
     16 C16       -43.7017  -17.5393  -57.6028 C.ar      1 MOL         0.0286
     17 C17       -40.6947   -8.3812  -58.1222 C.ar      1 MOL         0.4459
     18 C18       -42.6392  -11.2896  -56.4678 C.2       1 MOL         0.3775
     19 C19       -41.4700   -9.6140  -57.8975 C.2       1 MOL        -0.1979
     20 C20       -41.8763  -10.1120  -56.6825 C.2       1 MOL        -0.1776
     21 C21       -45.9470  -18.1449  -58.5203 C.2       1 MOL         0.6672
     22 C22       -47.3170  -19.4864  -60.1297 C.3       1 MOL         0.0802
     23 N1        -40.3230   -7.7045  -57.0124 N.ar      1 MOL        -0.6566
     24 N2        -43.5002  -11.4202  -55.4561 N.2       1 MOL        -0.3948
     25 N3        -43.9920  -12.6589  -55.6256 N.pl3     1 MOL        -0.3861
     26 N4        -46.3386  -19.3678  -59.0726 N.am      1 MOL        -0.5743
     27 O1        -46.4117  -17.0568  -58.8966 O.2       1 MOL        -0.5831
     28 S1        -43.2795  -16.5973  -59.0603 S.3       1 MOL        -0.0864
     29 H1        -44.5056  -19.5533  -54.3902 H         1 MOL         0.1379
     30 H2        -42.3225  -18.3969  -54.6154 H         1 MOL         0.1360
     31 H3        -39.3994   -6.4620  -60.5715 H         1 MOL         0.1387
     32 H4        -38.6841   -5.1723  -58.5615 H         1 MOL         0.1440
     33 H5        -41.1572  -12.1651  -58.9147 H         1 MOL         0.1450
     34 H6        -46.1717  -19.4259  -56.2085 H         1 MOL         0.1409
     35 H7        -41.8012  -17.1139  -56.6499 H         1 MOL         0.1467
     36 H8        -41.5525  -14.4071  -59.8508 H         1 MOL         0.1542
     37 H9        -40.7068   -8.5507  -60.2810 H         1 MOL         0.1438
     38 H10       -44.4367  -15.2635  -56.7324 H         1 MOL         0.1523
     39 H11       -39.3225   -6.0455  -56.3063 H         1 MOL         0.0235
     40 H12       -41.7614  -10.1455  -58.8002 H         1 MOL         0.1617
     41 H13       -41.5989   -9.5091  -55.7911 H         1 MOL         0.1330
     42 H14       -48.3083  -19.6664  -59.7057 H         1 MOL         0.0431
     43 H15       -47.0604  -20.3188  -60.7905 H         1 MOL         0.0431
     44 H16       -47.3486  -18.5669  -60.7204 H         1 MOL         0.0431
     45 H17       -44.6811  -12.9940  -54.9640 H         1 MOL         0.4865
     46 H18       -45.8796  -20.2209  -58.7707 H         1 MOL         0.3101
@<TRIPOS>BOND
     1    1    2 ar
     2    1    6 ar
     3    2    7 ar
     4    3    4 ar
     5    3    9 ar
     6    4   11 ar
     7    5    8 ar
     8    5   12 ar
     9    6   13 ar
    10    7   16 ar
    11    8   15 ar
    12    9   17 ar
    13   10   14 ar
    14   10   15 ar
    15   11   23 ar
    16   12   14 ar
    17   12   18 1
    18   13   16 ar
    19   13   21 1
    20   14   25 1
    21   15   28 1
    22   16   28 1
    23   17   19 1
    24   17   23 ar
    25   18   20 1
    26   18   24 2
    27   19   20 2
    28   21   26 am
    29   21   27 2
    30   22   26 1
    31   24   25 1
    32    1   29 1
    33    2   30 1
    34    3   31 1
    35    4   32 1
    36    5   33 1
    37    6   34 1
    38    7   35 1
    39    8   36 1
    40    9   37 1
    41   10   38 1
    42   11   39 1
    43   19   40 1
    44   20   41 1
    45   22   42 1
    46   22   43 1
    47   22   44 1
    48   25   45 1
    49   26   46 1
