~{N}-methyl-2-[[3-[(~{E})-2-(2-pyridyl)vinyl]-1~{H}-indazol-6-yl]sulfanyl]benzamide
                    3D
 Structure written by MMmdl.
 46 49  0  0  1  0            999 V2000
  -43.6810  -19.5675  -54.4570 C   0  0  0  0  0  0
  -42.3887  -19.4201  -54.9608 C   0  0  0  0  0  0
  -40.6126   -7.1712  -59.4015 C   0  0  0  0  0  0
  -40.2471   -6.2154  -58.4602 C   0  0  0  0  0  0
  -41.9099  -13.9612  -58.8601 C   0  0  0  0  0  0
  -44.7790  -19.1995  -55.2347 C   0  0  0  0  0  0
  -42.1943  -18.9046  -56.2423 C   0  0  0  0  0  0
  -42.0357  -15.3343  -59.1058 C   0  0  0  0  0  0
  -41.2642   -8.3291  -58.9915 C   0  0  0  0  0  0
  -43.5722  -15.5940  -57.2349 C   0  0  0  0  0  0
  -40.5535   -6.4631  -57.1318 C   0  0  0  0  0  0
  -42.6257  -13.4031  -57.7878 C   0  0  0  0  0  0
  -44.5846  -18.6840  -56.5162 C   0  0  0  0  0  0
  -43.4325  -14.2232  -57.0071 C   0  0  0  0  0  0
  -42.8532  -16.1350  -58.3059 C   0  0  0  0  0  0
  -43.2923  -18.5366  -57.0200 C   0  0  0  0  0  0
  -41.5249   -8.4822  -57.6394 C   0  0  0  0  0  0
  -42.7761  -12.1202  -57.2187 C   0  0  0  0  0  0
  -42.2137   -9.6916  -57.1550 C   0  0  0  0  0  0
  -42.1271  -10.9518  -57.6968 C   0  0  0  0  0  0
  -45.7683  -18.3155  -57.2848 C   0  0  0  0  0  0
  -47.0731  -18.7067  -59.3851 C   0  0  0  0  0  0
  -41.1853   -7.5758  -56.6956 N   0  0  0  0  0  0
  -43.6015  -12.1122  -56.1696 N   0  0  0  0  0  0
  -43.9827  -13.3962  -56.0652 N   0  0  0  0  0  0
  -45.9626  -18.9772  -58.5006 N   0  0  0  0  0  0
  -46.5395  -17.4372  -56.8658 O   0  0  0  0  0  0
  -42.9859  -17.8821  -58.6533 S   0  0  0  0  0  0
  -43.8321  -19.9678  -53.4586 H   0  0  0  0  0  0
  -41.5339  -19.7056  -54.3548 H   0  0  0  0  0  0
  -40.3908   -7.0130  -60.4527 H   0  0  0  0  0  0
  -39.7379   -5.3059  -58.7572 H   0  0  0  0  0  0
  -41.2701  -13.3518  -59.4913 H   0  0  0  0  0  0
  -45.7810  -19.3190  -54.8295 H   0  0  0  0  0  0
  -41.1784  -18.7969  -56.6142 H   0  0  0  0  0  0
  -41.4799  -15.7636  -59.9370 H   0  0  0  0  0  0
  -41.5526   -9.0795  -59.7207 H   0  0  0  0  0  0
  -44.2123  -16.2007  -56.6025 H   0  0  0  0  0  0
  -40.2887   -5.7498  -56.3582 H   0  0  0  0  0  0
  -42.8190   -9.5504  -56.2628 H   0  0  0  0  0  0
  -41.4575  -11.0590  -58.5773 H   0  0  0  0  0  0
  -47.8920  -19.4021  -59.1835 H   0  0  0  0  0  0
  -46.7627  -18.8210  -60.4272 H   0  0  0  0  0  0
  -47.4341  -17.6854  -59.2370 H   0  0  0  0  0  0
  -44.6254  -13.6450  -55.3237 H   0  0  0  0  0  0
  -45.2665  -19.6412  -58.8235 H   0  0  0  0  0  0
  1  2  2  0  0  0
  1  6  1  0  0  0
  1 29  1  0  0  0
  2  7  1  0  0  0
  2 30  1  0  0  0
  3  4  2  0  0  0
  3  9  1  0  0  0
  3 31  1  0  0  0
  4 11  1  0  0  0
  4 32  1  0  0  0
  5  8  2  0  0  0
  5 12  1  0  0  0
  5 33  1  0  0  0
  6 13  2  0  0  0
  6 34  1  0  0  0
  7 16  2  0  0  0
  7 35  1  0  0  0
  8 15  1  0  0  0
  8 36  1  0  0  0
  9 17  2  0  0  0
  9 37  1  0  0  0
 10 14  1  0  0  0
 10 15  2  0  0  0
 10 38  1  0  0  0
 11 23  2  0  0  0
 11 39  1  0  0  0
 12 14  2  0  0  0
 12 18  1  0  0  0
 13 16  1  0  0  0
 13 21  1  0  0  0
 14 25  1  0  0  0
 15 28  1  0  0  0
 16 28  1  0  0  0
 17 19  1  0  0  0
 17 23  1  0  0  0
 18 20  1  0  0  0
 18 24  2  0  0  0
 19 20  2  0  0  0
 19 40  1  0  0  0
 20 41  1  0  0  0
 21 26  1  0  0  0
 21 27  2  0  0  0
 22 26  1  0  0  0
 22 42  1  0  0  0
 22 43  1  0  0  0
 22 44  1  0  0  0
 24 25  1  0  0  0
 25 45  1  0  0  0
 26 46  1  0  0  0
M  END
> <s_m_entry_id>
15

> <s_m_entry_name>
cAbl-dasatinib_nowat-posed-Axitinib.1

> <s_m_Source_Path>
/Users/albaness/github/kinase-resistance-mutants/sensitivity-analysis/yank/input

> <s_m_Source_File>
cAbl-dasatinib_nowat-posed-Axitinib.mol2

> <i_m_Source_File_Index>
1

$$$$
4-(2,4-dichloro-5-methoxy-anilino)-6-methoxy-7-[3-(4-methylpiperazin-1-yl)propoxy]quinoline-3-carbonitrile
                    3D
 Structure written by MMmdl.
 65 68  0  0  1  0            999 V2000
  -41.7290   -7.2004  -54.4057 C   0  0  0  0  0  0
  -41.9941  -10.8739  -57.6699 C   0  0  0  0  0  0
  -43.5325  -12.2860  -55.8421 C   0  0  0  0  0  0
  -42.5506   -6.5877  -57.8216 C   0  0  0  0  0  0
  -40.3919   -4.9481  -58.4804 C   0  0  0  0  0  0
  -42.9332   -9.2680  -53.9767 C   0  0  0  0  0  0
  -42.1636   -8.4966  -54.8238 C   0  0  0  0  0  0
  -42.2996  -10.3061  -56.4213 C   0  0  0  0  0  0
  -43.0809  -11.0179  -55.4870 C   0  0  0  0  0  0
  -41.2478   -7.0108  -57.5586 C   0  0  0  0  0  0
  -41.8449   -9.0294  -56.0645 C   0  0  0  0  0  0
  -42.4588  -12.1441  -57.9987 C   0  0  0  0  0  0
  -43.2289  -12.8507  -57.0834 C   0  0  0  0  0  0
  -42.7741   -5.3449  -58.4141 C   0  0  0  0  0  0
  -40.1684   -6.1910  -57.8880 C   0  0  0  0  0  0
  -41.6948   -4.5251  -58.7435 C   0  0  0  0  0  0
  -43.9536  -21.3843  -56.6787 C   0  0  0  0  0  0
  -46.1012  -20.3155  -56.9263 C   0  0  0  0  0  0
  -43.3632  -20.0740  -56.1464 C   0  0  0  0  0  0
  -45.5107  -19.0058  -56.3927 C   0  0  0  0  0  0
  -45.9493  -22.7219  -56.8870 C   0  0  0  0  0  0
  -40.9550  -13.4483  -59.3001 C   0  0  0  0  0  0
  -44.7245   -4.2351  -57.6265 C   0  0  0  0  0  0
  -43.8854  -16.4667  -57.0485 C   0  0  0  0  0  0
  -43.5149  -17.6677  -56.1884 C   0  0  0  0  0  0
  -43.2856  -15.1638  -56.5337 C   0  0  0  0  0  0
  -41.3762   -6.1482  -54.0664 N   0  0  0  0  0  0
  -43.3918  -10.5034  -54.2822 N   0  0  0  0  0  0
  -45.3871  -21.4737  -56.3751 N   0  0  0  0  0  0
  -44.0777  -18.9165  -56.6983 N   0  0  0  0  0  0
  -41.0549   -8.2657  -56.9622 N   0  0  0  0  0  0
  -42.1540  -12.6802  -59.2123 O   0  0  0  0  0  0
  -44.0577   -4.9569  -58.6596 O   0  0  0  0  0  0
  -43.6974  -14.1028  -57.3853 O   0  0  0  0  0  0
  -38.5395   -6.6768  -57.5795 Cl  0  0  0  0  0  0
  -41.9428   -2.9834  -59.4768 Cl  0  0  0  0  0  0
  -41.3928  -10.3398  -58.4025 H   0  0  0  0  0  0
  -44.1375  -12.8552  -55.1375 H   0  0  0  0  0  0
  -43.3958   -7.2232  -57.5666 H   0  0  0  0  0  0
  -39.5504   -4.3081  -58.7377 H   0  0  0  0  0  0
  -43.2222   -8.9162  -52.9902 H   0  0  0  0  0  0
  -43.7771  -21.4558  -57.7606 H   0  0  0  0  0  0
  -43.4220  -22.2191  -56.2060 H   0  0  0  0  0  0
  -47.1582  -20.3600  -56.6368 H   0  0  0  0  0  0
  -46.0630  -20.3175  -58.0241 H   0  0  0  0  0  0
  -43.4012  -20.0712  -55.0485 H   0  0  0  0  0  0
  -42.3062  -20.0296  -56.4359 H   0  0  0  0  0  0
  -46.0428  -18.1707  -56.8643 H   0  0  0  0  0  0
  -45.6860  -18.9354  -55.3105 H   0  0  0  0  0  0
  -47.0161  -22.7765  -56.6548 H   0  0  0  0  0  0
  -45.4456  -23.5784  -56.4308 H   0  0  0  0  0  0
  -45.8219  -22.7772  -57.9714 H   0  0  0  0  0  0
  -40.8315  -13.8170  -60.3213 H   0  0  0  0  0  0
  -41.0070  -14.2876  -58.6020 H   0  0  0  0  0  0
  -40.1056  -12.8124  -59.0395 H   0  0  0  0  0  0
  -45.7382   -3.9869  -57.9503 H   0  0  0  0  0  0
  -44.1684   -3.3215  -57.4017 H   0  0  0  0  0  0
  -44.7731   -4.8594  -56.7311 H   0  0  0  0  0  0
  -43.5387  -16.6361  -58.0756 H   0  0  0  0  0  0
  -44.9760  -16.3639  -57.1135 H   0  0  0  0  0  0
  -42.4280  -17.7934  -56.1662 H   0  0  0  0  0  0
  -43.8655  -17.5382  -55.1595 H   0  0  0  0  0  0
  -43.6282  -14.9431  -55.5181 H   0  0  0  0  0  0
  -42.1919  -15.2092  -56.5395 H   0  0  0  0  0  0
  -40.1867   -8.7208  -57.2152 H   0  0  0  0  0  0
  1  7  1  0  0  0
  1 27  3  0  0  0
  2  8  2  0  0  0
  2 12  1  0  0  0
  2 37  1  0  0  0
  3  9  2  0  0  0
  3 13  1  0  0  0
  3 38  1  0  0  0
  4 10  2  0  0  0
  4 14  1  0  0  0
  4 39  1  0  0  0
  5 15  2  0  0  0
  5 16  1  0  0  0
  5 40  1  0  0  0
  6  7  1  0  0  0
  6 28  2  0  0  0
  6 41  1  0  0  0
  7 11  2  0  0  0
  8  9  1  0  0  0
  8 11  1  0  0  0
  9 28  1  0  0  0
 10 15  1  0  0  0
 10 31  1  0  0  0
 11 31  1  0  0  0
 12 13  2  0  0  0
 12 32  1  0  0  0
 13 34  1  0  0  0
 14 16  2  0  0  0
 14 33  1  0  0  0
 15 35  1  0  0  0
 16 36  1  0  0  0
 17 19  1  0  0  0
 17 29  1  0  0  0
 17 42  1  0  0  0
 17 43  1  0  0  0
 18 20  1  0  0  0
 18 29  1  0  0  0
 18 44  1  0  0  0
 18 45  1  0  0  0
 19 30  1  0  0  0
 19 46  1  0  0  0
 19 47  1  0  0  0
 20 30  1  0  0  0
 20 48  1  0  0  0
 20 49  1  0  0  0
 21 29  1  0  0  0
 21 50  1  0  0  0
 21 51  1  0  0  0
 21 52  1  0  0  0
 22 32  1  0  0  0
 22 53  1  0  0  0
 22 54  1  0  0  0
 22 55  1  0  0  0
 23 33  1  0  0  0
 23 56  1  0  0  0
 23 57  1  0  0  0
 23 58  1  0  0  0
 24 25  1  0  0  0
 24 26  1  0  0  0
 24 59  1  0  0  0
 24 60  1  0  0  0
 25 30  1  0  0  0
 25 61  1  0  0  0
 25 62  1  0  0  0
 26 34  1  0  0  0
 26 63  1  0  0  0
 26 64  1  0  0  0
 31 65  1  0  0  0
M  END
> <s_m_entry_id>
16

> <s_m_entry_name>
cAbl-dasatinib_nowat-posed-Bosutinib.1

> <s_m_Source_Path>
/Users/albaness/github/kinase-resistance-mutants/sensitivity-analysis/yank/input

> <s_m_Source_File>
cAbl-dasatinib_nowat-posed-Bosutinib.mol2

> <i_m_Source_File_Index>
1

$$$$
~{N}-(2-chloro-6-methyl-phenyl)-2-[[6-[4-(2-hydroxyethyl)piperazin-1-yl]-2-methyl-pyrimidin-4-yl]amino]thiazole-5-carboxamide
                    3D
 Structure written by MMmdl.
 59 62  0  0  1  0            999 V2000
  -39.6401   -4.4131  -58.2625 C   0  0  0  0  0  0
  -38.8604   -5.2798  -57.4959 C   0  0  0  0  0  0
  -41.0085   -4.6339  -58.3948 C   0  0  0  0  0  0
  -43.8130  -15.8031  -56.2865 C   0  0  0  0  0  0
  -42.8312  -10.0552  -55.1160 C   0  0  0  0  0  0
  -39.4376   -6.3785  -56.8445 C   0  0  0  0  0  0
  -40.8191   -6.6010  -56.9853 C   0  0  0  0  0  0
  -41.6000   -5.7279  -57.7614 C   0  0  0  0  0  0
  -42.2519   -9.9667  -56.3613 C   0  0  0  0  0  0
  -43.7864  -16.8132  -57.2531 C   0  0  0  0  0  0
  -43.3391  -14.5273  -56.6081 C   0  0  0  0  0  0
  -42.8484  -15.2832  -58.7282 C   0  0  0  0  0  0
  -43.0394  -12.2028  -55.7013 C   0  0  0  0  0  0
  -41.6990   -8.8580  -57.1104 C   0  0  0  0  0  0
  -44.6357  -18.5659  -55.6734 C   0  0  0  0  0  0
  -43.9125  -19.1398  -57.9877 C   0  0  0  0  0  0
  -45.6344  -19.7234  -55.7607 C   0  0  0  0  0  0
  -44.9347  -20.2730  -57.9829 C   0  0  0  0  0  0
  -38.5692   -7.3128  -56.0501 C   0  0  0  0  0  0
  -42.3227  -14.9870  -60.0945 C   0  0  0  0  0  0
  -46.0189  -21.9626  -56.6432 C   0  0  0  0  0  0
  -45.8755  -22.7964  -55.3734 C   0  0  0  0  0  0
  -43.2726  -11.3168  -54.7475 N   0  0  0  0  0  0
  -43.2940  -16.5256  -58.4843 N   0  0  0  0  0  0
  -42.8558  -14.2776  -57.8422 N   0  0  0  0  0  0
  -44.2673  -18.1027  -57.0109 N   0  0  0  0  0  0
  -45.1251  -20.7947  -56.6262 N   0  0  0  0  0  0
  -41.4030   -7.7238  -56.3561 N   0  0  0  0  0  0
  -43.3949  -13.5197  -55.6036 N   0  0  0  0  0  0
  -41.4680   -8.9266  -58.3194 O   0  0  0  0  0  0
  -44.5232  -23.2168  -55.2427 O   0  0  0  0  0  0
  -42.2494  -11.5120  -57.0770 S   0  0  0  0  0  0
  -43.3047   -5.9513  -57.9513 Cl  0  0  0  0  0  0
  -39.1777   -3.5658  -58.7604 H   0  0  0  0  0  0
  -37.7926   -5.0929  -57.4168 H   0  0  0  0  0  0
  -41.5999   -3.9479  -58.9956 H   0  0  0  0  0  0
  -44.1977  -15.9750  -55.2870 H   0  0  0  0  0  0
  -42.9781   -9.2345  -54.4261 H   0  0  0  0  0  0
  -45.1238  -17.7851  -55.0827 H   0  0  0  0  0  0
  -43.7336  -18.8815  -55.1342 H   0  0  0  0  0  0
  -42.9134  -19.5283  -57.7514 H   0  0  0  0  0  0
  -43.8789  -18.7521  -59.0127 H   0  0  0  0  0  0
  -45.8078  -20.0874  -54.7428 H   0  0  0  0  0  0
  -46.5959  -19.3479  -56.1377 H   0  0  0  0  0  0
  -45.8854  -19.9202  -58.4040 H   0  0  0  0  0  0
  -44.5582  -21.0635  -58.6437 H   0  0  0  0  0  0
  -38.9216   -7.3803  -55.0166 H   0  0  0  0  0  0
  -38.5786   -8.3098  -56.5043 H   0  0  0  0  0  0
  -37.5292   -6.9721  -56.0263 H   0  0  0  0  0  0
  -43.0137  -14.3198  -60.6180 H   0  0  0  0  0  0
  -41.3447  -14.5014  -60.0253 H   0  0  0  0  0  0
  -42.2119  -15.9044  -60.6804 H   0  0  0  0  0  0
  -45.7405  -22.6124  -57.4832 H   0  0  0  0  0  0
  -47.0643  -21.6676  -56.7946 H   0  0  0  0  0  0
  -46.5046  -23.6893  -55.4438 H   0  0  0  0  0  0
  -46.1660  -22.2432  -54.4758 H   0  0  0  0  0  0
  -41.3040   -7.8048  -55.3478 H   0  0  0  0  0  0
  -43.8368  -13.8260  -54.7407 H   0  0  0  0  0  0
  -44.4516  -23.6936  -54.3994 H   0  0  0  0  0  0
  1  2  2  0  0  0
  1  3  1  0  0  0
  1 34  1  0  0  0
  2  6  1  0  0  0
  2 35  1  0  0  0
  3  8  2  0  0  0
  3 36  1  0  0  0
  4 10  2  0  0  0
  4 11  1  0  0  0
  4 37  1  0  0  0
  5  9  2  0  0  0
  5 23  1  0  0  0
  5 38  1  0  0  0
  6  7  2  0  0  0
  6 19  1  0  0  0
  7  8  1  0  0  0
  7 28  1  0  0  0
  8 33  1  0  0  0
  9 14  1  0  0  0
  9 32  1  0  0  0
 10 24  1  0  0  0
 10 26  1  0  0  0
 11 25  2  0  0  0
 11 29  1  0  0  0
 12 20  1  0  0  0
 12 24  2  0  0  0
 12 25  1  0  0  0
 13 23  2  0  0  0
 13 29  1  0  0  0
 13 32  1  0  0  0
 14 28  1  0  0  0
 14 30  2  0  0  0
 15 17  1  0  0  0
 15 26  1  0  0  0
 15 39  1  0  0  0
 15 40  1  0  0  0
 16 18  1  0  0  0
 16 26  1  0  0  0
 16 41  1  0  0  0
 16 42  1  0  0  0
 17 27  1  0  0  0
 17 43  1  0  0  0
 17 44  1  0  0  0
 18 27  1  0  0  0
 18 45  1  0  0  0
 18 46  1  0  0  0
 19 47  1  0  0  0
 19 48  1  0  0  0
 19 49  1  0  0  0
 20 50  1  0  0  0
 20 51  1  0  0  0
 20 52  1  0  0  0
 21 22  1  0  0  0
 21 27  1  0  0  0
 21 53  1  0  0  0
 21 54  1  0  0  0
 22 31  1  0  0  0
 22 55  1  0  0  0
 22 56  1  0  0  0
 28 57  1  0  0  0
 29 58  1  0  0  0
 31 59  1  0  0  0
M  END
> <s_m_entry_id>
17

> <s_m_entry_name>
cAbl-dasatinib_nowat-posed-Dasatinib.1

> <s_m_Source_Path>
/Users/albaness/github/kinase-resistance-mutants/sensitivity-analysis/yank/input

> <s_m_Source_File>
cAbl-dasatinib_nowat-posed-Dasatinib.mol2

> <i_m_Source_File_Index>
1

$$$$
~{N}-(3-ethynylphenyl)-6,7-bis(2-methoxyethoxy)quinazolin-4-amine
                    3D
 Structure written by MMmdl.
 52 54  0  0  1  0            999 V2000
  -37.6191   -4.1265  -59.2814 C   0  0  0  0  0  0
  -38.6557   -4.6096  -58.9155 C   0  0  0  0  0  0
  -42.2393   -4.9539  -57.9690 C   0  0  0  0  0  0
  -41.0348   -4.3932  -58.3934 C   0  0  0  0  0  0
  -42.2986   -6.3061  -57.6316 C   0  0  0  0  0  0
  -39.9487   -6.5368  -58.1433 C   0  0  0  0  0  0
  -41.8939  -11.1808  -57.8814 C   0  0  0  0  0  0
  -43.4717  -12.4887  -56.0062 C   0  0  0  0  0  0
  -43.1821   -9.2378  -54.5216 C   0  0  0  0  0  0
  -39.8895   -5.1846  -58.4806 C   0  0  0  0  0  0
  -42.3341  -10.5082  -56.7282 C   0  0  0  0  0  0
  -43.1321  -11.1583  -55.7727 C   0  0  0  0  0  0
  -41.1533   -7.0975  -57.7188 C   0  0  0  0  0  0
  -42.2480  -12.5102  -58.0893 C   0  0  0  0  0  0
  -43.0379  -13.1645  -57.1505 C   0  0  0  0  0  0
  -42.0156   -9.1798  -56.4603 C   0  0  0  0  0  0
  -43.4664  -14.5254  -62.7082 C   0  0  0  0  0  0
  -43.8808  -18.5071  -57.8556 C   0  0  0  0  0  0
  -41.6155  -12.3631  -60.3771 C   0  0  0  0  0  0
  -43.5998  -15.2532  -56.1619 C   0  0  0  0  0  0
  -41.8522  -13.2219  -61.6044 C   0  0  0  0  0  0
  -43.2788  -16.7016  -56.4771 C   0  0  0  0  0  0
  -43.5585  -10.5247  -54.6662 N   0  0  0  0  0  0
  -42.4254   -8.5155  -55.3634 N   0  0  0  0  0  0
  -41.2135   -8.4583  -57.3792 N   0  0  0  0  0  0
  -41.8183  -13.1556  -59.2082 O   0  0  0  0  0  0
  -43.3969  -14.4661  -57.3337 O   0  0  0  0  0  0
  -43.1809  -13.7286  -61.5671 O   0  0  0  0  0  0
  -44.1520  -17.1577  -57.5032 O   0  0  0  0  0  0
  -36.6995   -3.6986  -59.6060 H   0  0  0  0  0  0
  -43.1311   -4.3378  -57.9010 H   0  0  0  0  0  0
  -41.0045   -3.3376  -58.6528 H   0  0  0  0  0  0
  -43.2425   -6.7327  -57.3020 H   0  0  0  0  0  0
  -39.0575   -7.1580  -58.2099 H   0  0  0  0  0  0
  -41.2758  -10.6848  -58.6261 H   0  0  0  0  0  0
  -44.0896  -13.0179  -55.2823 H   0  0  0  0  0  0
  -43.5289   -8.7331  -53.6281 H   0  0  0  0  0  0
  -44.4921  -14.8970  -62.6467 H   0  0  0  0  0  0
  -42.7660  -15.3632  -62.7531 H   0  0  0  0  0  0
  -43.3564  -13.9127  -63.6061 H   0  0  0  0  0  0
  -44.5680  -18.8237  -58.6441 H   0  0  0  0  0  0
  -43.9996  -19.1452  -56.9762 H   0  0  0  0  0  0
  -42.8534  -18.5798  -58.2200 H   0  0  0  0  0  0
  -42.3143  -11.5216  -60.3438 H   0  0  0  0  0  0
  -40.5875  -11.9896  -60.3637 H   0  0  0  0  0  0
  -42.9458  -14.8667  -55.3743 H   0  0  0  0  0  0
  -44.6452  -15.1504  -55.8569 H   0  0  0  0  0  0
  -41.1637  -14.0723  -61.6298 H   0  0  0  0  0  0
  -41.7376  -12.6275  -62.5156 H   0  0  0  0  0  0
  -43.4235  -17.3381  -55.5985 H   0  0  0  0  0  0
  -42.2497  -16.7965  -56.8355 H   0  0  0  0  0  0
  -40.5592   -9.0437  -57.8848 H   0  0  0  0  0  0
  1  2  3  0  0  0
  1 30  1  0  0  0
  2 10  1  0  0  0
  3  4  2  0  0  0
  3  5  1  0  0  0
  3 31  1  0  0  0
  4 10  1  0  0  0
  4 32  1  0  0  0
  5 13  2  0  0  0
  5 33  1  0  0  0
  6 10  2  0  0  0
  6 13  1  0  0  0
  6 34  1  0  0  0
  7 11  2  0  0  0
  7 14  1  0  0  0
  7 35  1  0  0  0
  8 12  2  0  0  0
  8 15  1  0  0  0
  8 36  1  0  0  0
  9 23  2  0  0  0
  9 24  1  0  0  0
  9 37  1  0  0  0
 11 12  1  0  0  0
 11 16  1  0  0  0
 12 23  1  0  0  0
 13 25  1  0  0  0
 14 15  2  0  0  0
 14 26  1  0  0  0
 15 27  1  0  0  0
 16 24  2  0  0  0
 16 25  1  0  0  0
 17 28  1  0  0  0
 17 38  1  0  0  0
 17 39  1  0  0  0
 17 40  1  0  0  0
 18 29  1  0  0  0
 18 41  1  0  0  0
 18 42  1  0  0  0
 18 43  1  0  0  0
 19 21  1  0  0  0
 19 26  1  0  0  0
 19 44  1  0  0  0
 19 45  1  0  0  0
 20 22  1  0  0  0
 20 27  1  0  0  0
 20 46  1  0  0  0
 20 47  1  0  0  0
 21 28  1  0  0  0
 21 48  1  0  0  0
 21 49  1  0  0  0
 22 29  1  0  0  0
 22 50  1  0  0  0
 22 51  1  0  0  0
 25 52  1  0  0  0
M  END
> <s_m_entry_id>
18

> <s_m_entry_name>
cAbl-dasatinib_nowat-posed-Erlotinib.1

> <s_m_Source_Path>
/Users/albaness/github/kinase-resistance-mutants/sensitivity-analysis/yank/input

> <s_m_Source_File>
cAbl-dasatinib_nowat-posed-Erlotinib.mol2

> <i_m_Source_File_Index>
1

$$$$
~{N}-(3-chloro-4-fluoro-phenyl)-7-methoxy-6-(3-morpholinopropoxy)quinazolin-4-amine
                    3D
 Structure written by MMmdl.
 55 58  0  0  1  0            999 V2000
  -41.9023   -6.5627  -57.2098 C   0  0  0  0  0  0
  -41.6979   -5.2065  -57.4640 C   0  0  0  0  0  0
  -42.1502  -11.4175  -57.8074 C   0  0  0  0  0  0
  -43.7227  -12.6592  -55.8835 C   0  0  0  0  0  0
  -39.6521   -7.0403  -57.9483 C   0  0  0  0  0  0
  -42.8957   -9.5890  -54.2263 C   0  0  0  0  0  0
  -42.4034  -10.7845  -56.5780 C   0  0  0  0  0  0
  -43.1967  -11.4018  -55.5972 C   0  0  0  0  0  0
  -40.8794   -7.4796  -57.4519 C   0  0  0  0  0  0
  -42.6883  -12.6741  -58.0667 C   0  0  0  0  0  0
  -43.4755  -13.2953  -57.1035 C   0  0  0  0  0  0
  -40.4706   -4.7672  -57.9604 C   0  0  0  0  0  0
  -39.4477   -5.6841  -58.2026 C   0  0  0  0  0  0
  -41.8955   -9.5291  -56.2558 C   0  0  0  0  0  0
  -41.6779  -11.0442  -62.8716 C   0  0  0  0  0  0
  -39.5907  -12.2440  -62.9234 C   0  0  0  0  0  0
  -40.8986   -9.7394  -63.0087 C   0  0  0  0  0  0
  -38.8605  -10.9108  -63.0581 C   0  0  0  0  0  0
  -43.2330  -15.6562  -56.9524 C   0  0  0  0  0  0
  -41.0065  -14.1982  -60.9574 C   0  0  0  0  0  0
  -41.5733  -13.3139  -62.0603 C   0  0  0  0  0  0
  -41.0758  -13.5451  -59.5823 C   0  0  0  0  0  0
  -43.4451  -10.8055  -54.4180 N   0  0  0  0  0  0
  -42.1245   -8.9037  -55.0857 N   0  0  0  0  0  0
  -40.8504  -12.0506  -62.1919 N   0  0  0  0  0  0
  -41.0860   -8.8444  -57.1961 N   0  0  0  0  0  0
  -39.6853   -9.9579  -63.7297 O   0  0  0  0  0  0
  -44.0129  -14.5256  -57.3361 O   0  0  0  0  0  0
  -42.4374  -13.2855  -59.2673 O   0  0  0  0  0  0
  -40.2893   -3.4607  -58.2003 F   0  0  0  0  0  0
  -37.9313   -5.1486  -58.8170 Cl  0  0  0  0  0  0
  -42.8624   -6.8944  -56.8220 H   0  0  0  0  0  0
  -42.4947   -4.4931  -57.2757 H   0  0  0  0  0  0
  -41.5370  -10.9465  -58.5721 H   0  0  0  0  0  0
  -44.3416  -13.1615  -55.1415 H   0  0  0  0  0  0
  -38.8571   -7.7587  -58.1363 H   0  0  0  0  0  0
  -43.0996   -9.1141  -53.2743 H   0  0  0  0  0  0
  -42.5927  -10.8544  -62.2985 H   0  0  0  0  0  0
  -41.9685  -11.4015  -63.8681 H   0  0  0  0  0  0
  -39.7899  -12.6536  -63.9223 H   0  0  0  0  0  0
  -38.9450  -12.9500  -62.3888 H   0  0  0  0  0  0
  -41.4919   -9.0090  -63.5682 H   0  0  0  0  0  0
  -40.6692   -9.3010  -62.0299 H   0  0  0  0  0  0
  -38.5613  -10.5116  -62.0811 H   0  0  0  0  0  0
  -37.9516  -11.0419  -63.6539 H   0  0  0  0  0  0
  -43.7765  -16.5732  -57.1929 H   0  0  0  0  0  0
  -43.0285  -15.6118  -55.8797 H   0  0  0  0  0  0
  -42.2890  -15.6401  -57.5023 H   0  0  0  0  0  0
  -41.5622  -15.1438  -60.9300 H   0  0  0  0  0  0
  -39.9663  -14.4682  -61.1794 H   0  0  0  0  0  0
  -41.5017  -13.8243  -63.0257 H   0  0  0  0  0  0
  -42.6262  -13.0792  -61.8745 H   0  0  0  0  0  0
  -40.6627  -14.2012  -58.8100 H   0  0  0  0  0  0
  -40.5303  -12.5960  -59.5736 H   0  0  0  0  0  0
  -40.5564   -9.4659  -57.7958 H   0  0  0  0  0  0
  1  2  2  0  0  0
  1  9  1  0  0  0
  1 32  1  0  0  0
  2 12  1  0  0  0
  2 33  1  0  0  0
  3  7  2  0  0  0
  3 10  1  0  0  0
  3 34  1  0  0  0
  4  8  2  0  0  0
  4 11  1  0  0  0
  4 35  1  0  0  0
  5  9  2  0  0  0
  5 13  1  0  0  0
  5 36  1  0  0  0
  6 23  2  0  0  0
  6 24  1  0  0  0
  6 37  1  0  0  0
  7  8  1  0  0  0
  7 14  1  0  0  0
  8 23  1  0  0  0
  9 26  1  0  0  0
 10 11  2  0  0  0
 10 29  1  0  0  0
 11 28  1  0  0  0
 12 13  2  0  0  0
 12 30  1  0  0  0
 13 31  1  0  0  0
 14 24  2  0  0  0
 14 26  1  0  0  0
 15 17  1  0  0  0
 15 25  1  0  0  0
 15 38  1  0  0  0
 15 39  1  0  0  0
 16 18  1  0  0  0
 16 25  1  0  0  0
 16 40  1  0  0  0
 16 41  1  0  0  0
 17 27  1  0  0  0
 17 42  1  0  0  0
 17 43  1  0  0  0
 18 27  1  0  0  0
 18 44  1  0  0  0
 18 45  1  0  0  0
 19 28  1  0  0  0
 19 46  1  0  0  0
 19 47  1  0  0  0
 19 48  1  0  0  0
 20 21  1  0  0  0
 20 22  1  0  0  0
 20 49  1  0  0  0
 20 50  1  0  0  0
 21 25  1  0  0  0
 21 51  1  0  0  0
 21 52  1  0  0  0
 22 29  1  0  0  0
 22 53  1  0  0  0
 22 54  1  0  0  0
 26 55  1  0  0  0
M  END
> <s_m_entry_id>
19

> <s_m_entry_name>
cAbl-dasatinib_nowat-posed-Gefitinib.1

> <s_m_Source_Path>
/Users/albaness/github/kinase-resistance-mutants/sensitivity-analysis/yank/input

> <s_m_Source_File>
cAbl-dasatinib_nowat-posed-Gefitinib.mol2

> <i_m_Source_File_Index>
1

$$$$
4-[(4-methylpiperazin-1-yl)methyl]-~{N}-[4-methyl-3-[[4-(3-pyridyl)pyrimidin-2-yl]amino]phenyl]benzamide
                    3D
 Structure written by MMmdl.
 68 72  0  0  1  0            999 V2000
  -44.0059  -11.3312  -62.4501 C   0  0  0  0  0  0
  -43.9328   -9.9932  -62.0790 C   0  0  0  0  0  0
  -43.5757  -12.8971  -58.4224 C   0  0  0  0  0  0
  -41.8300  -12.7291  -56.7607 C   0  0  0  0  0  0
  -43.9692  -14.1227  -57.8852 C   0  0  0  0  0  0
  -42.2235  -13.9547  -56.2234 C   0  0  0  0  0  0
  -39.4450   -6.9526  -57.2394 C   0  0  0  0  0  0
  -39.9122   -8.2475  -57.0149 C   0  0  0  0  0  0
  -43.7674   -6.7046  -63.3585 C   0  0  0  0  0  0
  -41.6184   -7.9230  -58.6945 C   0  0  0  0  0  0
  -43.4389  -11.7008  -63.6591 C   0  0  0  0  0  0
  -43.6122   -5.4086  -62.9103 C   0  0  0  0  0  0
  -42.7682   -9.5491  -64.1045 C   0  0  0  0  0  0
  -43.3038   -9.0786  -62.9165 C   0  0  0  0  0  0
  -42.5061  -12.2003  -57.8602 C   0  0  0  0  0  0
  -43.2931  -14.6515  -56.7856 C   0  0  0  0  0  0
  -40.0644   -6.1428  -58.1914 C   0  0  0  0  0  0
  -40.9989   -8.7327  -57.7424 C   0  0  0  0  0  0
  -41.1511   -6.6281  -58.9190 C   0  0  0  0  0  0
  -43.2123   -7.6831  -62.5594 C   0  0  0  0  0  0
  -42.4702   -6.1250  -61.0801 C   0  0  0  0  0  0
  -42.0952  -10.9221  -58.4193 C   0  0  0  0  0  0
  -42.1580  -18.6596  -58.3472 C   0  0  0  0  0  0
  -44.4304  -19.2938  -57.8473 C   0  0  0  0  0  0
  -42.2491  -17.5251  -57.3208 C   0  0  0  0  0  0
  -44.5206  -18.1600  -56.8201 C   0  0  0  0  0  0
  -39.5430   -4.7601  -58.4116 C   0  0  0  0  0  0
  -42.9626  -20.8478  -58.9636 C   0  0  0  0  0  0
  -43.7178  -15.9703  -56.2070 C   0  0  0  0  0  0
  -42.8197  -10.8412  -64.4989 N   0  0  0  0  0  0
  -42.9670   -5.0816  -61.7714 N   0  0  0  0  0  0
  -42.5542   -7.4281  -61.4095 N   0  0  0  0  0  0
  -43.0478  -19.7685  -57.9817 N   0  0  0  0  0  0
  -43.6320  -17.0508  -57.1874 N   0  0  0  0  0  0
  -41.7906   -5.8214  -59.8860 N   0  0  0  0  0  0
  -41.4736  -10.0488  -57.5133 N   0  0  0  0  0  0
  -42.3167  -10.6273  -59.6020 O   0  0  0  0  0  0
  -44.4903  -12.0623  -61.8133 H   0  0  0  0  0  0
  -44.3702   -9.6777  -61.1350 H   0  0  0  0  0  0
  -44.1091  -12.4938  -59.2792 H   0  0  0  0  0  0
  -40.9951  -12.1951  -56.3144 H   0  0  0  0  0  0
  -44.8038  -14.6587  -58.3293 H   0  0  0  0  0  0
  -41.6914  -14.3591  -55.3662 H   0  0  0  0  0  0
  -38.5974   -6.5837  -56.6678 H   0  0  0  0  0  0
  -39.4219   -8.8702  -56.2708 H   0  0  0  0  0  0
  -44.2930   -6.9237  -64.2796 H   0  0  0  0  0  0
  -42.4663   -8.3017  -59.2616 H   0  0  0  0  0  0
  -43.4697  -12.7326  -63.9944 H   0  0  0  0  0  0
  -44.0146   -4.5721  -63.4716 H   0  0  0  0  0  0
  -42.2633   -8.8865  -64.8017 H   0  0  0  0  0  0
  -42.4028  -18.2738  -59.3462 H   0  0  0  0  0  0
  -41.1201  -19.0126  -58.3796 H   0  0  0  0  0  0
  -45.0733  -20.1160  -57.5102 H   0  0  0  0  0  0
  -44.8219  -18.9483  -58.8138 H   0  0  0  0  0  0
  -41.8579  -17.8698  -56.3538 H   0  0  0  0  0  0
  -41.6062  -16.7029  -57.6580 H   0  0  0  0  0  0
  -45.5587  -17.8074  -56.7865 H   0  0  0  0  0  0
  -44.2742  -18.5458  -55.8215 H   0  0  0  0  0  0
  -38.7695   -4.7656  -59.1880 H   0  0  0  0  0  0
  -40.3452   -4.0793  -58.7215 H   0  0  0  0  0  0
  -39.1121   -4.3483  -57.4908 H   0  0  0  0  0  0
  -43.6290  -21.6667  -58.6806 H   0  0  0  0  0  0
  -41.9394  -21.2294  -59.0180 H   0  0  0  0  0  0
  -43.2536  -20.4830  -59.9524 H   0  0  0  0  0  0
  -43.0861  -16.2386  -55.3532 H   0  0  0  0  0  0
  -44.7508  -15.9267  -55.8463 H   0  0  0  0  0  0
  -41.7499   -4.8292  -59.6762 H   0  0  0  0  0  0
  -41.3473  -10.4066  -56.5698 H   0  0  0  0  0  0
  1  2  2  0  0  0
  1 11  1  0  0  0
  1 38  1  0  0  0
  2 14  1  0  0  0
  2 39  1  0  0  0
  3  5  2  0  0  0
  3 15  1  0  0  0
  3 40  1  0  0  0
  4  6  1  0  0  0
  4 15  2  0  0  0
  4 41  1  0  0  0
  5 16  1  0  0  0
  5 42  1  0  0  0
  6 16  2  0  0  0
  6 43  1  0  0  0
  7  8  2  0  0  0
  7 17  1  0  0  0
  7 44  1  0  0  0
  8 18  1  0  0  0
  8 45  1  0  0  0
  9 12  2  0  0  0
  9 20  1  0  0  0
  9 46  1  0  0  0
 10 18  2  0  0  0
 10 19  1  0  0  0
 10 47  1  0  0  0
 11 30  2  0  0  0
 11 48  1  0  0  0
 12 31  1  0  0  0
 12 49  1  0  0  0
 13 14  2  0  0  0
 13 30  1  0  0  0
 13 50  1  0  0  0
 14 20  1  0  0  0
 15 22  1  0  0  0
 16 29  1  0  0  0
 17 19  2  0  0  0
 17 27  1  0  0  0
 18 36  1  0  0  0
 19 35  1  0  0  0
 20 32  2  0  0  0
 21 31  2  0  0  0
 21 32  1  0  0  0
 21 35  1  0  0  0
 22 36  1  0  0  0
 22 37  2  0  0  0
 23 25  1  0  0  0
 23 33  1  0  0  0
 23 51  1  0  0  0
 23 52  1  0  0  0
 24 26  1  0  0  0
 24 33  1  0  0  0
 24 53  1  0  0  0
 24 54  1  0  0  0
 25 34  1  0  0  0
 25 55  1  0  0  0
 25 56  1  0  0  0
 26 34  1  0  0  0
 26 57  1  0  0  0
 26 58  1  0  0  0
 27 59  1  0  0  0
 27 60  1  0  0  0
 27 61  1  0  0  0
 28 33  1  0  0  0
 28 62  1  0  0  0
 28 63  1  0  0  0
 28 64  1  0  0  0
 29 34  1  0  0  0
 29 65  1  0  0  0
 29 66  1  0  0  0
 35 67  1  0  0  0
 36 68  1  0  0  0
M  END
> <s_m_entry_id>
20

> <s_m_entry_name>
cAbl-dasatinib_nowat-posed-Imatinib.1

> <s_m_Source_Path>
/Users/albaness/github/kinase-resistance-mutants/sensitivity-analysis/yank/input

> <s_m_Source_File>
cAbl-dasatinib_nowat-posed-Imatinib.mol2

> <i_m_Source_File_Index>
1

$$$$
4-methyl-~{N}-[3-(4-methylimidazol-1-yl)-5-(trifluoromethyl)phenyl]-3-[[4-(3-pyridyl)pyrimidin-2-yl]amino]benzamide
                    3D
 Structure written by MMmdl.
 61 65  0  0  1  0            999 V2000
  -38.3427   -3.9297  -58.5820 C   0  0  0  0  0  0
  -39.1065   -5.0856  -58.6989 C   0  0  0  0  0  0
  -44.3165  -12.4756  -54.6036 C   0  0  0  0  0  0
  -44.4636  -11.3066  -53.8571 C   0  0  0  0  0  0
  -40.1557   -7.8226  -58.9050 C   0  0  0  0  0  0
  -42.5667  -11.4283  -55.8991 C   0  0  0  0  0  0
  -43.3761  -18.8979  -57.1394 C   0  0  0  0  0  0
  -43.0313  -16.5330  -57.4931 C   0  0  0  0  0  0
  -43.9236  -17.3225  -55.3914 C   0  0  0  0  0  0
  -37.7172   -3.6854  -57.3701 C   0  0  0  0  0  0
  -40.9311   -8.9633  -58.8619 C   0  0  0  0  0  0
  -38.5548   -5.6152  -56.4469 C   0  0  0  0  0  0
  -44.7542  -19.5715  -53.7732 C   0  0  0  0  0  0
  -44.2553  -21.0067  -55.3695 C   0  0  0  0  0  0
  -39.2198   -5.9498  -57.6155 C   0  0  0  0  0  0
  -43.3680  -12.5365  -55.6246 C   0  0  0  0  0  0
  -43.6622  -10.1984  -54.1316 C   0  0  0  0  0  0
  -42.9637  -17.8464  -57.9579 C   0  0  0  0  0  0
  -43.8561  -18.6360  -55.8561 C   0  0  0  0  0  0
  -42.7138  -10.2592  -55.1526 C   0  0  0  0  0  0
  -43.5112  -16.2710  -56.2099 C   0  0  0  0  0  0
  -40.0056   -7.1571  -57.7055 C   0  0  0  0  0  0
  -45.0188  -20.8645  -53.3877 C   0  0  0  0  0  0
  -41.2975   -8.6908  -56.6351 C   0  0  0  0  0  0
  -43.2151  -13.7553  -56.4032 C   0  0  0  0  0  0
  -43.8436   -8.9580  -53.3183 C   0  0  0  0  0  0
  -45.5645  -21.3384  -52.1067 C   0  0  0  0  0  0
  -42.4499  -18.1264  -59.3296 C   0  0  0  0  0  0
  -37.8039   -4.5012  -56.2956 N   0  0  0  0  0  0
  -41.5192   -9.4280  -57.7400 N   0  0  0  0  0  0
  -44.7058  -21.7532  -54.3857 N   0  0  0  0  0  0
  -40.5645   -7.5645  -56.5471 N   0  0  0  0  0  0
  -44.2653  -19.6786  -55.0447 N   0  0  0  0  0  0
  -41.8955   -9.1459  -55.4455 N   0  0  0  0  0  0
  -43.5794  -14.9360  -55.7375 N   0  0  0  0  0  0
  -42.7619  -13.7392  -57.5560 O   0  0  0  0  0  0
  -42.4394  -19.4543  -59.6499 F   0  0  0  0  0  0
  -43.1770  -17.5274  -60.3187 F   0  0  0  0  0  0
  -41.1665  -17.6970  -59.5075 F   0  0  0  0  0  0
  -38.2392   -3.2416  -59.4131 H   0  0  0  0  0  0
  -39.6076   -5.3000  -59.6395 H   0  0  0  0  0  0
  -44.9459  -13.3334  -54.3810 H   0  0  0  0  0  0
  -45.2048  -11.2700  -53.0630 H   0  0  0  0  0  0
  -39.7013   -7.4840  -59.8278 H   0  0  0  0  0  0
  -41.8281  -11.4755  -56.6966 H   0  0  0  0  0  0
  -43.3217  -19.9208  -57.5062 H   0  0  0  0  0  0
  -42.7083  -15.7146  -58.1327 H   0  0  0  0  0  0
  -44.2981  -17.1156  -54.3907 H   0  0  0  0  0  0
  -37.1102   -2.7970  -57.2277 H   0  0  0  0  0  0
  -41.1062   -9.5531  -59.7554 H   0  0  0  0  0  0
  -38.6021   -6.2482  -55.5653 H   0  0  0  0  0  0
  -44.8675  -18.6216  -53.2677 H   0  0  0  0  0  0
  -43.9114  -21.3717  -56.3284 H   0  0  0  0  0  0
  -43.1902   -8.9823  -52.4389 H   0  0  0  0  0  0
  -43.6077   -8.0621  -53.9052 H   0  0  0  0  0  0
  -44.8820   -8.8548  -52.9805 H   0  0  0  0  0  0
  -46.6674  -21.3849  -52.1316 H   0  0  0  0  0  0
  -45.1969  -22.3467  -51.8420 H   0  0  0  0  0  0
  -45.2800  -20.6840  -51.2623 H   0  0  0  0  0  0
  -41.7023   -8.5621  -54.6380 H   0  0  0  0  0  0
  -43.9391  -14.8187  -54.7935 H   0  0  0  0  0  0
  1  2  2  0  0  0
  1 10  1  0  0  0
  1 40  1  0  0  0
  2 15  1  0  0  0
  2 41  1  0  0  0
  3  4  2  0  0  0
  3 16  1  0  0  0
  3 42  1  0  0  0
  4 17  1  0  0  0
  4 43  1  0  0  0
  5 11  2  0  0  0
  5 22  1  0  0  0
  5 44  1  0  0  0
  6 16  2  0  0  0
  6 20  1  0  0  0
  6 45  1  0  0  0
  7 18  2  0  0  0
  7 19  1  0  0  0
  7 46  1  0  0  0
  8 18  1  0  0  0
  8 21  2  0  0  0
  8 47  1  0  0  0
  9 19  2  0  0  0
  9 21  1  0  0  0
  9 48  1  0  0  0
 10 29  2  0  0  0
 10 49  1  0  0  0
 11 30  1  0  0  0
 11 50  1  0  0  0
 12 15  2  0  0  0
 12 29  1  0  0  0
 12 51  1  0  0  0
 13 23  2  0  0  0
 13 33  1  0  0  0
 13 52  1  0  0  0
 14 31  2  0  0  0
 14 33  1  0  0  0
 14 53  1  0  0  0
 15 22  1  0  0  0
 16 25  1  0  0  0
 17 20  2  0  0  0
 17 26  1  0  0  0
 18 28  1  0  0  0
 19 33  1  0  0  0
 20 34  1  0  0  0
 21 35  1  0  0  0
 22 32  2  0  0  0
 23 27  1  0  0  0
 23 31  1  0  0  0
 24 30  2  0  0  0
 24 32  1  0  0  0
 24 34  1  0  0  0
 25 35  1  0  0  0
 25 36  2  0  0  0
 26 54  1  0  0  0
 26 55  1  0  0  0
 26 56  1  0  0  0
 27 57  1  0  0  0
 27 58  1  0  0  0
 27 59  1  0  0  0
 28 37  1  0  0  0
 28 38  1  0  0  0
 28 39  1  0  0  0
 34 60  1  0  0  0
 35 61  1  0  0  0
M  END
> <s_m_entry_id>
21

> <s_m_entry_name>
cAbl-dasatinib_nowat-posed-Nilotinib.1

> <s_m_Source_Path>
/Users/albaness/github/kinase-resistance-mutants/sensitivity-analysis/yank/input

> <s_m_Source_File>
cAbl-dasatinib_nowat-posed-Nilotinib.mol2

> <i_m_Source_File_Index>
1

$$$$
3-(2-imidazo[1,2-b]pyridazin-3-ylethynyl)-4-methyl-~{N}-[4-[(4-methylpiperazin-1-yl)methyl]-3-(trifluoromethyl)phenyl]benzamide
                    3D
 Structure written by MMmdl.
 66 70  0  0  1  0            999 V2000
  -41.8889   -8.5801  -56.9398 C   0  0  0  0  0  0
  -41.2800   -7.6833  -57.4559 C   0  0  0  0  0  0
  -44.0112  -11.7653  -55.1606 C   0  0  0  0  0  0
  -44.0628  -10.4955  -54.5856 C   0  0  0  0  0  0
  -43.5618  -18.0182  -55.5134 C   0  0  0  0  0  0
  -43.5927  -16.6485  -55.2517 C   0  0  0  0  0  0
  -42.5633  -10.9190  -56.8997 C   0  0  0  0  0  0
  -43.1203  -16.1934  -57.5769 C   0  0  0  0  0  0
  -40.6346   -6.1622  -59.3662 C   0  0  0  0  0  0
  -42.6149   -9.6492  -56.3247 C   0  0  0  0  0  0
  -40.5547   -6.6149  -58.0710 C   0  0  0  0  0  0
  -43.2615  -11.9771  -56.3176 C   0  0  0  0  0  0
  -43.3646   -9.4374  -55.1677 C   0  0  0  0  0  0
  -43.3101  -18.4756  -56.8069 C   0  0  0  0  0  0
  -43.0893  -17.5631  -57.8387 C   0  0  0  0  0  0
  -43.3720  -15.7361  -56.2835 C   0  0  0  0  0  0
  -39.1707   -4.9214  -58.4249 C   0  0  0  0  0  0
  -38.1852   -3.9884  -58.0259 C   0  0  0  0  0  0
  -37.7301   -4.0063  -56.7678 C   0  0  0  0  0  0
  -38.3066   -5.0290  -55.8624 C   0  0  0  0  0  0
  -43.2064  -13.3189  -56.9227 C   0  0  0  0  0  0
  -46.9805  -20.7029  -57.1656 C   0  0  0  0  0  0
  -45.8036  -22.7175  -56.5553 C   0  0  0  0  0  0
  -45.6486  -20.0290  -57.5183 C   0  0  0  0  0  0
  -44.4695  -22.0472  -56.9067 C   0  0  0  0  0  0
  -43.4433   -8.0903  -54.5239 C   0  0  0  0  0  0
  -46.9940  -22.6103  -58.6715 C   0  0  0  0  0  0
  -43.2815  -19.9545  -57.0642 C   0  0  0  0  0  0
  -42.8175  -18.0295  -59.2312 C   0  0  0  0  0  0
  -39.7759   -5.1143  -59.5794 N   0  0  0  0  0  0
  -39.2091   -5.9071  -56.1719 N   0  0  0  0  0  0
  -39.6161   -5.8186  -57.4695 N   0  0  0  0  0  0
  -46.9558  -22.1664  -57.2796 N   0  0  0  0  0  0
  -44.5512  -20.5934  -56.7241 N   0  0  0  0  0  0
  -43.4031  -14.3661  -56.0212 N   0  0  0  0  0  0
  -42.9690  -13.4637  -58.1200 O   0  0  0  0  0  0
  -42.6235  -17.0111  -60.1194 F   0  0  0  0  0  0
  -41.7042  -18.8125  -59.3359 F   0  0  0  0  0  0
  -43.8401  -18.7737  -59.7425 F   0  0  0  0  0  0
  -44.5610  -12.5821  -54.6999 H   0  0  0  0  0  0
  -44.6504  -10.3413  -53.6844 H   0  0  0  0  0  0
  -43.7349  -18.7209  -54.7027 H   0  0  0  0  0  0
  -43.7899  -16.3035  -54.2398 H   0  0  0  0  0  0
  -41.9793  -11.0905  -57.8020 H   0  0  0  0  0  0
  -42.9477  -15.4829  -58.3825 H   0  0  0  0  0  0
  -41.2665   -6.5338  -60.1607 H   0  0  0  0  0  0
  -37.8082   -3.2677  -58.7429 H   0  0  0  0  0  0
  -36.9791   -3.3237  -56.3944 H   0  0  0  0  0  0
  -37.9094   -5.0168  -54.8344 H   0  0  0  0  0  0
  -47.2433  -20.4188  -56.1255 H   0  0  0  0  0  0
  -47.7869  -20.2766  -57.8020 H   0  0  0  0  0  0
  -45.9666  -22.6049  -55.4636 H   0  0  0  0  0  0
  -45.7211  -23.8125  -56.7315 H   0  0  0  0  0  0
  -45.7307  -18.9451  -57.3599 H   0  0  0  0  0  0
  -45.4544  -20.1889  -58.5857 H   0  0  0  0  0  0
  -43.6683  -22.4758  -56.2896 H   0  0  0  0  0  0
  -44.2340  -22.2772  -57.9528 H   0  0  0  0  0  0
  -42.6408   -7.9795  -53.7882 H   0  0  0  0  0  0
  -43.3518   -7.2943  -55.2702 H   0  0  0  0  0  0
  -44.4063   -7.9532  -54.0207 H   0  0  0  0  0  0
  -46.9736  -23.6948  -58.6951 H   0  0  0  0  0  0
  -46.1302  -22.2116  -59.1936 H   0  0  0  0  0  0
  -47.9057  -22.2463  -59.1339 H   0  0  0  0  0  0
  -43.0734  -20.1587  -58.1202 H   0  0  0  0  0  0
  -42.4946  -20.4402  -56.4777 H   0  0  0  0  0  0
  -43.5627  -14.1301  -55.0449 H   0  0  0  0  0  0
  1  2  3  0  0  0
  1 10  1  0  0  0
  2 11  1  0  0  0
  3  4  2  0  0  0
  3 12  1  0  0  0
  3 40  1  0  0  0
  4 13  1  0  0  0
  4 41  1  0  0  0
  5  6  2  0  0  0
  5 14  1  0  0  0
  5 42  1  0  0  0
  6 16  1  0  0  0
  6 43  1  0  0  0
  7 10  1  0  0  0
  7 12  2  0  0  0
  7 44  1  0  0  0
  8 15  1  0  0  0
  8 16  2  0  0  0
  8 45  1  0  0  0
  9 11  2  0  0  0
  9 30  1  0  0  0
  9 46  1  0  0  0
 10 13  2  0  0  0
 11 32  1  0  0  0
 12 21  1  0  0  0
 13 26  1  0  0  0
 14 15  2  0  0  0
 14 28  1  0  0  0
 15 29  1  0  0  0
 16 35  1  0  0  0
 17 18  1  0  0  0
 17 30  2  0  0  0
 17 32  1  0  0  0
 18 19  2  0  0  0
 18 47  1  0  0  0
 19 20  1  0  0  0
 19 48  1  0  0  0
 20 31  2  0  0  0
 20 49  1  0  0  0
 21 35  1  0  0  0
 21 36  2  0  0  0
 22 24  1  0  0  0
 22 33  1  0  0  0
 22 50  1  0  0  0
 22 51  1  0  0  0
 23 25  1  0  0  0
 23 33  1  0  0  0
 23 52  1  0  0  0
 23 53  1  0  0  0
 24 34  1  0  0  0
 24 54  1  0  0  0
 24 55  1  0  0  0
 25 34  1  0  0  0
 25 56  1  0  0  0
 25 57  1  0  0  0
 26 58  1  0  0  0
 26 59  1  0  0  0
 26 60  1  0  0  0
 27 33  1  0  0  0
 27 61  1  0  0  0
 27 62  1  0  0  0
 27 63  1  0  0  0
 28 34  1  0  0  0
 28 64  1  0  0  0
 28 65  1  0  0  0
 29 37  1  0  0  0
 29 38  1  0  0  0
 29 39  1  0  0  0
 31 32  1  0  0  0
 35 66  1  0  0  0
M  END
> <s_m_entry_id>
22

> <s_m_entry_name>
cAbl-dasatinib_nowat-posed-Ponatinib.1

> <s_m_Source_Path>
/Users/albaness/github/kinase-resistance-mutants/sensitivity-analysis/yank/input

> <s_m_Source_File>
cAbl-dasatinib_nowat-posed-Ponatinib.mol2

> <i_m_Source_File_Index>
1

$$$$
