3-(2-imidazo[1,2-b]pyridazin-3-ylethynyl)-4-methyl-~{N}-[4-[(4-methylpiperazin-1-yl)methyl]-3-(trifluoromethyl)phenyl]benzamide
                    3D
 Structure written by MMmdl.
 66 70  0  0  1  0            999 V2000
  -45.3165  -18.5546  -55.8334 C   0  0  0  0  0  0
  -46.0871  -19.4172  -56.1550 C   0  0  0  0  0  0
  -42.6196  -15.4956  -54.7450 C   0  0  0  0  0  0
  -42.8010  -16.5890  -53.8982 C   0  0  0  0  0  0
  -41.8955   -9.5129  -56.5083 C   0  0  0  0  0  0
  -42.1187  -10.7692  -55.9447 C   0  0  0  0  0  0
  -44.2164  -16.4328  -56.2971 C   0  0  0  0  0  0
  -42.6896  -11.6450  -58.1227 C   0  0  0  0  0  0
  -47.0234  -21.1865  -57.6953 C   0  0  0  0  0  0
  -44.3978  -17.5262  -55.4502 C   0  0  0  0  0  0
  -47.0051  -20.4450  -56.5383 C   0  0  0  0  0  0
  -43.3273  -15.4175  -55.9445 C   0  0  0  0  0  0
  -43.6900  -17.6043  -54.2508 C   0  0  0  0  0  0
  -42.0693   -9.3227  -57.8791 C   0  0  0  0  0  0
  -42.4664  -10.3887  -58.6864 C   0  0  0  0  0  0
  -42.5157  -11.8352  -56.7519 C   0  0  0  0  0  0
  -48.6845  -21.8899  -56.5489 C   0  0  0  0  0  0
  -49.8233  -22.5102  -55.9837 C   0  0  0  0  0  0
  -50.2553  -22.1238  -54.7777 C   0  0  0  0  0  0
  -49.4892  -21.0465  -54.1065 C   0  0  0  0  0  0
  -43.1363  -14.2614  -56.8370 C   0  0  0  0  0  0
  -39.8860   -5.5159  -58.7286 C   0  0  0  0  0  0
  -38.9931   -7.2640  -57.3198 C   0  0  0  0  0  0
  -40.3125   -6.5680  -59.7599 C   0  0  0  0  0  0
  -39.4211   -8.3128  -58.3538 C   0  0  0  0  0  0
  -43.8586  -18.7610  -53.3185 C   0  0  0  0  0  0
  -38.3166   -4.9746  -56.9793 C   0  0  0  0  0  0
  -41.8233   -7.9614  -58.4628 C   0  0  0  0  0  0
  -42.6592  -10.2086  -60.1564 C   0  0  0  0  0  0
  -48.0648  -22.0789  -57.6963 N   0  0  0  0  0  0
  -48.4415  -20.4431  -54.5749 N   0  0  0  0  0  0
  -48.0703  -20.8971  -55.8050 N   0  0  0  0  0  0
  -38.7194   -5.9750  -57.9657 N   0  0  0  0  0  0
  -40.5559   -7.8981  -59.1878 N   0  0  0  0  0  0
  -42.7388  -13.0916  -56.1877 N   0  0  0  0  0  0
  -43.3535  -14.3509  -58.0435 O   0  0  0  0  0  0
  -43.0485  -11.3483  -60.7991 F   0  0  0  0  0  0
  -43.6074   -9.2785  -60.4714 F   0  0  0  0  0  0
  -41.5204   -9.8013  -60.7872 F   0  0  0  0  0  0
  -41.9225  -14.7111  -54.4615 H   0  0  0  0  0  0
  -42.2441  -16.6401  -52.9662 H   0  0  0  0  0  0
  -41.5864   -8.6888  -55.8707 H   0  0  0  0  0  0
  -41.9800  -10.9058  -54.8751 H   0  0  0  0  0  0
  -44.7665  -16.3661  -57.2340 H   0  0  0  0  0  0
  -42.9994  -12.4754  -58.7534 H   0  0  0  0  0  0
  -46.3406  -21.1277  -58.5313 H   0  0  0  0  0  0
  -50.3351  -23.2927  -56.5327 H   0  0  0  0  0  0
  -51.1171  -22.5535  -54.2859 H   0  0  0  0  0  0
  -49.8721  -20.7517  -53.1159 H   0  0  0  0  0  0
  -39.6390   -4.5907  -59.2633 H   0  0  0  0  0  0
  -40.7287   -5.2919  -58.0604 H   0  0  0  0  0  0
  -38.0886   -7.6263  -56.8164 H   0  0  0  0  0  0
  -39.7742   -7.1613  -56.5542 H   0  0  0  0  0  0
  -39.5461   -6.6248  -60.5638 H   0  0  0  0  0  0
  -41.2362   -6.2061  -60.2568 H   0  0  0  0  0  0
  -38.5479   -8.5779  -58.9894 H   0  0  0  0  0  0
  -39.6843   -9.2432  -57.8096 H   0  0  0  0  0  0
  -44.6607  -18.5523  -52.6041 H   0  0  0  0  0  0
  -44.1042  -19.6748  -53.8697 H   0  0  0  0  0  0
  -42.9335  -18.9553  -52.7655 H   0  0  0  0  0  0
  -37.4543   -5.3451  -56.4350 H   0  0  0  0  0  0
  -39.1407   -4.8009  -56.2950 H   0  0  0  0  0  0
  -38.0628   -4.0532  -57.4934 H   0  0  0  0  0  0
  -42.6241   -7.6894  -59.1591 H   0  0  0  0  0  0
  -41.7995   -7.1965  -57.6796 H   0  0  0  0  0  0
  -42.6171  -13.1251  -55.1786 H   0  0  0  0  0  0
  1  2  3  0  0  0
  1 10  1  0  0  0
  2 11  1  0  0  0
  3  4  2  0  0  0
  3 12  1  0  0  0
  3 40  1  0  0  0
  4 13  1  0  0  0
  4 41  1  0  0  0
  5  6  2  0  0  0
  5 14  1  0  0  0
  5 42  1  0  0  0
  6 16  1  0  0  0
  6 43  1  0  0  0
  7 10  1  0  0  0
  7 12  2  0  0  0
  7 44  1  0  0  0
  8 15  1  0  0  0
  8 16  2  0  0  0
  8 45  1  0  0  0
  9 11  2  0  0  0
  9 30  1  0  0  0
  9 46  1  0  0  0
 10 13  2  0  0  0
 11 32  1  0  0  0
 12 21  1  0  0  0
 13 26  1  0  0  0
 14 15  2  0  0  0
 14 28  1  0  0  0
 15 29  1  0  0  0
 16 35  1  0  0  0
 17 18  1  0  0  0
 17 30  2  0  0  0
 17 32  1  0  0  0
 18 19  2  0  0  0
 18 47  1  0  0  0
 19 20  1  0  0  0
 19 48  1  0  0  0
 20 31  2  0  0  0
 20 49  1  0  0  0
 21 35  1  0  0  0
 21 36  2  0  0  0
 22 24  1  0  0  0
 22 33  1  0  0  0
 22 50  1  0  0  0
 22 51  1  0  0  0
 23 25  1  0  0  0
 23 33  1  0  0  0
 23 52  1  0  0  0
 23 53  1  0  0  0
 24 34  1  0  0  0
 24 54  1  0  0  0
 24 55  1  0  0  0
 25 34  1  0  0  0
 25 56  1  0  0  0
 25 57  1  0  0  0
 26 58  1  0  0  0
 26 59  1  0  0  0
 26 60  1  0  0  0
 27 33  1  0  0  0
 27 61  1  0  0  0
 27 62  1  0  0  0
 27 63  1  0  0  0
 28 34  1  0  0  0
 28 64  1  0  0  0
 28 65  1  0  0  0
 29 37  1  0  0  0
 29 38  1  0  0  0
 29 39  1  0  0  0
 31 32  1  0  0  0
 35 66  1  0  0  0
M  END
> <s_m_entry_id>
9

> <s_m_entry_name>
cAbl-bosutinib_nowat-posed-Ponatinib.1

> <s_m_Source_Path>
/Users/albaness/github/kinase-resistance-mutants/sensitivity-analysis/yank/input

> <s_m_Source_File>
cAbl-bosutinib_nowat-posed-Ponatinib.mol2

> <i_m_Source_File_Index>
1

$$$$
~{N}-methyl-2-[[3-[(~{E})-2-(2-pyridyl)vinyl]-1~{H}-indazol-6-yl]sulfanyl]benzamide
                    3D
 Structure written by MMmdl.
 46 49  0  0  1  0            999 V2000
  -50.2325  -21.0089  -54.8933 C   0  0  0  0  0  0
  -49.1810  -21.5822  -54.1784 C   0  0  0  0  0  0
  -42.0506  -11.2074  -56.9004 C   0  0  0  0  0  0
  -42.4673  -10.1493  -56.1004 C   0  0  0  0  0  0
  -44.8230  -17.6403  -56.8862 C   0  0  0  0  0  0
  -50.0314  -20.5791  -56.2051 C   0  0  0  0  0  0
  -47.9284  -21.7258  -54.7750 C   0  0  0  0  0  0
  -45.4202  -18.8648  -57.2109 C   0  0  0  0  0  0
  -42.2305  -12.5150  -56.4632 C   0  0  0  0  0  0
  -44.6368  -19.8706  -55.1366 C   0  0  0  0  0  0
  -43.0537  -10.4496  -54.8815 C   0  0  0  0  0  0
  -44.1255  -17.5351  -55.6713 C   0  0  0  0  0  0
  -48.7788  -20.7226  -56.8017 C   0  0  0  0  0  0
  -44.0485  -18.6410  -54.8321 C   0  0  0  0  0  0
  -45.3274  -19.9598  -56.3496 C   0  0  0  0  0  0
  -47.7273  -21.2960  -56.0867 C   0  0  0  0  0  0
  -42.8274  -12.7094  -55.2280 C   0  0  0  0  0  0
  -43.4088  -16.5282  -54.9896 C   0  0  0  0  0  0
  -43.0407  -14.0764  -54.7207 C   0  0  0  0  0  0
  -43.2220  -15.2087  -55.4786 C   0  0  0  0  0  0
  -48.6251  -20.2557  -58.1751 C   0  0  0  0  0  0
  -48.7842  -18.2928  -59.7205 C   0  0  0  0  0  0
  -43.2452  -11.7069  -54.4231 N   0  0  0  0  0  0
  -42.9153  -16.9439  -53.8210 N   0  0  0  0  0  0
  -43.3176  -18.2239  -53.7525 N   0  0  0  0  0  0
  -48.8714  -18.9003  -58.4121 N   0  0  0  0  0  0
  -48.3100  -21.0500  -59.0758 O   0  0  0  0  0  0
  -46.1037  -21.5038  -56.8014 S   0  0  0  0  0  0
  -51.2075  -20.8960  -54.4281 H   0  0  0  0  0  0
  -49.3374  -21.9159  -53.1567 H   0  0  0  0  0  0
  -41.5876  -11.0128  -57.8632 H   0  0  0  0  0  0
  -42.3364   -9.1222  -56.4209 H   0  0  0  0  0  0
  -44.9040  -16.7979  -57.5666 H   0  0  0  0  0  0
  -50.8594  -20.1332  -56.7509 H   0  0  0  0  0  0
  -47.1227  -22.1740  -54.1987 H   0  0  0  0  0  0
  -45.9596  -18.9430  -58.1527 H   0  0  0  0  0  0
  -41.9079  -13.3460  -57.0824 H   0  0  0  0  0  0
  -44.5542  -20.7108  -54.4546 H   0  0  0  0  0  0
  -43.3947   -9.6604  -54.2195 H   0  0  0  0  0  0
  -43.0177  -14.1745  -53.6380 H   0  0  0  0  0  0
  -43.1879  -15.0684  -56.5805 H   0  0  0  0  0  0
  -47.7906  -17.8622  -59.8694 H   0  0  0  0  0  0
  -49.5300  -17.4993  -59.8193 H   0  0  0  0  0  0
  -48.9635  -19.0409  -60.4974 H   0  0  0  0  0  0
  -43.0582  -18.7632  -52.9359 H   0  0  0  0  0  0
  -49.1873  -18.3103  -57.6494 H   0  0  0  0  0  0
  1  2  2  0  0  0
  1  6  1  0  0  0
  1 29  1  0  0  0
  2  7  1  0  0  0
  2 30  1  0  0  0
  3  4  2  0  0  0
  3  9  1  0  0  0
  3 31  1  0  0  0
  4 11  1  0  0  0
  4 32  1  0  0  0
  5  8  2  0  0  0
  5 12  1  0  0  0
  5 33  1  0  0  0
  6 13  2  0  0  0
  6 34  1  0  0  0
  7 16  2  0  0  0
  7 35  1  0  0  0
  8 15  1  0  0  0
  8 36  1  0  0  0
  9 17  2  0  0  0
  9 37  1  0  0  0
 10 14  1  0  0  0
 10 15  2  0  0  0
 10 38  1  0  0  0
 11 23  2  0  0  0
 11 39  1  0  0  0
 12 14  2  0  0  0
 12 18  1  0  0  0
 13 16  1  0  0  0
 13 21  1  0  0  0
 14 25  1  0  0  0
 15 28  1  0  0  0
 16 28  1  0  0  0
 17 19  1  0  0  0
 17 23  1  0  0  0
 18 20  1  0  0  0
 18 24  2  0  0  0
 19 20  2  0  0  0
 19 40  1  0  0  0
 20 41  1  0  0  0
 21 26  1  0  0  0
 21 27  2  0  0  0
 22 26  1  0  0  0
 22 42  1  0  0  0
 22 43  1  0  0  0
 22 44  1  0  0  0
 24 25  1  0  0  0
 25 45  1  0  0  0
 26 46  1  0  0  0
M  END
> <s_m_entry_id>
10

> <s_m_entry_name>
cAbl-bosutinib_nowat-posed-Axitinib.1

> <s_m_Source_Path>
/Users/albaness/github/kinase-resistance-mutants/sensitivity-analysis/yank/input

> <s_m_Source_File>
cAbl-bosutinib_nowat-posed-Axitinib.mol2

> <i_m_Source_File_Index>
1

$$$$
4-(2,4-dichloro-5-methoxy-anilino)-6-methoxy-7-[3-(4-methylpiperazin-1-yl)propoxy]quinoline-3-carbonitrile
                    3D
 Structure written by MMmdl.
 65 68  0  0  1  0            999 V2000
  -42.7108   -8.2338  -56.2210 C   0  0  0  0  0  0
  -42.4128  -12.9598  -57.8885 C   0  0  0  0  0  0
  -43.4732  -13.6859  -55.4407 C   0  0  0  0  0  0
  -40.0600   -8.6569  -57.7380 C   0  0  0  0  0  0
  -40.6132   -7.0029  -59.9102 C   0  0  0  0  0  0
  -43.3427  -10.1683  -54.9495 C   0  0  0  0  0  0
  -42.8205   -9.6590  -56.1243 C   0  0  0  0  0  0
  -42.6963  -11.9520  -56.9327 C   0  0  0  0  0  0
  -43.2388  -12.3433  -55.6899 C   0  0  0  0  0  0
  -41.0937   -9.0078  -58.6294 C   0  0  0  0  0  0
  -42.4712  -10.5612  -57.1502 C   0  0  0  0  0  0
  -42.6664  -14.3096  -57.6290 C   0  0  0  0  0  0
  -43.1972  -14.6736  -56.3888 C   0  0  0  0  0  0
  -39.3168   -7.4852  -57.9089 C   0  0  0  0  0  0
  -41.3520   -8.1699  -59.7218 C   0  0  0  0  0  0
  -39.6080   -6.6618  -59.0023 C   0  0  0  0  0  0
  -46.5871  -21.5117  -54.4817 C   0  0  0  0  0  0
  -46.1657  -21.8722  -56.8252 C   0  0  0  0  0  0
  -46.2482  -20.0303  -54.6493 C   0  0  0  0  0  0
  -45.8292  -20.3886  -56.9930 C   0  0  0  0  0  0
  -47.4587  -23.4703  -55.5696 C   0  0  0  0  0  0
  -41.9209  -15.0049  -59.7877 C   0  0  0  0  0  0
  -38.2214   -7.7372  -55.8095 C   0  0  0  0  0  0
  -43.9548  -17.9373  -54.8565 C   0  0  0  0  0  0
  -44.9593  -18.4113  -55.9153 C   0  0  0  0  0  0
  -43.7848  -16.4221  -54.8815 C   0  0  0  0  0  0
  -42.6449   -7.0773  -56.2950 N   0  0  0  0  0  0
  -43.5483  -11.4756  -54.7194 N   0  0  0  0  0  0
  -47.1238  -22.0598  -55.7310 N   0  0  0  0  0  0
  -45.2853  -19.8331  -55.7452 N   0  0  0  0  0  0
  -41.9004  -10.1355  -58.3782 N   0  0  0  0  0  0
  -42.4359  -15.3390  -58.5053 O   0  0  0  0  0  0
  -38.3210   -7.0703  -57.0635 O   0  0  0  0  0  0
  -43.4170  -16.0128  -56.1963 O   0  0  0  0  0  0
  -42.6148   -8.5332  -60.8442 Cl  0  0  0  0  0  0
  -38.7548   -5.1817  -59.2552 Cl  0  0  0  0  0  0
  -41.9953  -12.6696  -58.8482 H   0  0  0  0  0  0
  -43.8909  -13.9480  -54.4710 H   0  0  0  0  0  0
  -39.8656   -9.3153  -56.8943 H   0  0  0  0  0  0
  -40.8336   -6.3503  -60.7515 H   0  0  0  0  0  0
  -43.6301   -9.5190  -54.1276 H   0  0  0  0  0  0
  -45.6919  -22.0614  -54.1602 H   0  0  0  0  0  0
  -47.3329  -21.6058  -53.6831 H   0  0  0  0  0  0
  -46.5963  -22.2371  -57.7654 H   0  0  0  0  0  0
  -45.2446  -22.4433  -56.6446 H   0  0  0  0  0  0
  -47.1698  -19.4607  -54.8319 H   0  0  0  0  0  0
  -45.8345  -19.6762  -53.6996 H   0  0  0  0  0  0
  -45.0862  -20.2980  -57.7949 H   0  0  0  0  0  0
  -46.7234  -19.8358  -57.3115 H   0  0  0  0  0  0
  -47.8959  -23.8672  -56.4917 H   0  0  0  0  0  0
  -48.2112  -23.5937  -54.7834 H   0  0  0  0  0  0
  -46.5835  -24.0765  -55.3105 H   0  0  0  0  0  0
  -41.8272  -15.9331  -60.3597 H   0  0  0  0  0  0
  -40.9235  -14.5617  -59.7056 H   0  0  0  0  0  0
  -42.6068  -14.3479  -60.3325 H   0  0  0  0  0  0
  -37.5007   -7.1884  -55.1960 H   0  0  0  0  0  0
  -37.8425   -8.7558  -55.9404 H   0  0  0  0  0  0
  -39.1777   -7.7346  -55.2744 H   0  0  0  0  0  0
  -44.2608  -18.2231  -53.8455 H   0  0  0  0  0  0
  -42.9875  -18.4167  -55.0532 H   0  0  0  0  0  0
  -45.8666  -17.7935  -55.9046 H   0  0  0  0  0  0
  -44.4922  -18.2593  -56.8974 H   0  0  0  0  0  0
  -44.7356  -15.9610  -54.5883 H   0  0  0  0  0  0
  -42.9988  -16.1434  -54.1693 H   0  0  0  0  0  0
  -42.2655  -10.5939  -59.2059 H   0  0  0  0  0  0
  1  7  1  0  0  0
  1 27  3  0  0  0
  2  8  2  0  0  0
  2 12  1  0  0  0
  2 37  1  0  0  0
  3  9  2  0  0  0
  3 13  1  0  0  0
  3 38  1  0  0  0
  4 10  2  0  0  0
  4 14  1  0  0  0
  4 39  1  0  0  0
  5 15  2  0  0  0
  5 16  1  0  0  0
  5 40  1  0  0  0
  6  7  1  0  0  0
  6 28  2  0  0  0
  6 41  1  0  0  0
  7 11  2  0  0  0
  8  9  1  0  0  0
  8 11  1  0  0  0
  9 28  1  0  0  0
 10 15  1  0  0  0
 10 31  1  0  0  0
 11 31  1  0  0  0
 12 13  2  0  0  0
 12 32  1  0  0  0
 13 34  1  0  0  0
 14 16  2  0  0  0
 14 33  1  0  0  0
 15 35  1  0  0  0
 16 36  1  0  0  0
 17 19  1  0  0  0
 17 29  1  0  0  0
 17 42  1  0  0  0
 17 43  1  0  0  0
 18 20  1  0  0  0
 18 29  1  0  0  0
 18 44  1  0  0  0
 18 45  1  0  0  0
 19 30  1  0  0  0
 19 46  1  0  0  0
 19 47  1  0  0  0
 20 30  1  0  0  0
 20 48  1  0  0  0
 20 49  1  0  0  0
 21 29  1  0  0  0
 21 50  1  0  0  0
 21 51  1  0  0  0
 21 52  1  0  0  0
 22 32  1  0  0  0
 22 53  1  0  0  0
 22 54  1  0  0  0
 22 55  1  0  0  0
 23 33  1  0  0  0
 23 56  1  0  0  0
 23 57  1  0  0  0
 23 58  1  0  0  0
 24 25  1  0  0  0
 24 26  1  0  0  0
 24 59  1  0  0  0
 24 60  1  0  0  0
 25 30  1  0  0  0
 25 61  1  0  0  0
 25 62  1  0  0  0
 26 34  1  0  0  0
 26 63  1  0  0  0
 26 64  1  0  0  0
 31 65  1  0  0  0
M  END
> <s_m_entry_id>
11

> <s_m_entry_name>
cAbl-bosutinib_nowat-posed-Bosutinib.1

> <s_m_Source_Path>
/Users/albaness/github/kinase-resistance-mutants/sensitivity-analysis/yank/input

> <s_m_Source_File>
cAbl-bosutinib_nowat-posed-Bosutinib.mol2

> <i_m_Source_File_Index>
1

$$$$
~{N}-(2-chloro-6-methyl-phenyl)-2-[[6-[4-(2-hydroxyethyl)piperazin-1-yl]-2-methyl-pyrimidin-4-yl]amino]thiazole-5-carboxamide
                    3D
 Structure written by MMmdl.
 59 62  0  0  1  0            999 V2000
  -45.9547  -22.4074  -57.5992 C   0  0  0  0  0  0
  -46.5340  -21.7028  -56.5440 C   0  0  0  0  0  0
  -44.9831  -21.7990  -58.3940 C   0  0  0  0  0  0
  -42.6942  -10.7662  -57.5365 C   0  0  0  0  0  0
  -43.9712  -15.5728  -54.6205 C   0  0  0  0  0  0
  -46.1418  -20.3898  -56.2836 C   0  0  0  0  0  0
  -45.1703  -19.7813  -57.0784 C   0  0  0  0  0  0
  -44.5910  -20.4860  -58.1336 C   0  0  0  0  0  0
  -43.9716  -16.4898  -55.6506 C   0  0  0  0  0  0
  -42.5373   -9.4683  -57.0947 C   0  0  0  0  0  0
  -43.0043  -11.6945  -56.5637 C   0  0  0  0  0  0
  -42.9743  -10.0912  -54.9527 C   0  0  0  0  0  0
  -43.4844  -14.2140  -56.2718 C   0  0  0  0  0  0
  -44.2161  -17.8926  -55.6306 C   0  0  0  0  0  0
  -42.6564   -7.1133  -57.8701 C   0  0  0  0  0  0
  -41.1378   -8.6701  -59.0094 C   0  0  0  0  0  0
  -41.4431   -6.2639  -57.4654 C   0  0  0  0  0  0
  -39.9427   -7.8146  -58.5805 C   0  0  0  0  0  0
  -46.7812  -19.6626  -55.1451 C   0  0  0  0  0  0
  -43.1298   -9.7164  -53.5179 C   0  0  0  0  0  0
  -39.2020   -5.5821  -58.0433 C   0  0  0  0  0  0
  -38.3285   -5.3123  -59.2549 C   0  0  0  0  0  0
  -43.6917  -14.2673  -54.9747 N   0  0  0  0  0  0
  -42.6706   -9.0941  -55.8053 N   0  0  0  0  0  0
  -43.1522  -11.3908  -55.2575 N   0  0  0  0  0  0
  -42.2243   -8.5029  -58.0433 N   0  0  0  0  0  0
  -40.3449   -6.4050  -58.4362 N   0  0  0  0  0  0
  -44.7839  -18.4450  -56.8050 N   0  0  0  0  0  0
  -43.1738  -13.0391  -56.9756 N   0  0  0  0  0  0
  -43.9822  -18.6110  -54.6284 O   0  0  0  0  0  0
  -39.0982   -4.6582  -60.2557 O   0  0  0  0  0  0
  -43.6103  -15.6962  -57.1274 S   0  0  0  0  0  0
  -43.3848  -19.7742  -59.1459 Cl  0  0  0  0  0  0
  -46.2595  -23.4301  -57.8013 H   0  0  0  0  0  0
  -47.2909  -22.1856  -55.9313 H   0  0  0  0  0  0
  -44.5434  -22.3616  -59.2139 H   0  0  0  0  0  0
  -42.5813  -11.0387  -58.5796 H   0  0  0  0  0  0
  -44.1699  -15.8032  -53.5819 H   0  0  0  0  0  0
  -43.4110   -7.0442  -57.0872 H   0  0  0  0  0  0
  -43.0811   -6.7345  -58.8003 H   0  0  0  0  0  0
  -41.4731   -8.3685  -60.0056 H   0  0  0  0  0  0
  -40.8255   -9.7161  -59.0544 H   0  0  0  0  0  0
  -41.7632   -5.2164  -57.4112 H   0  0  0  0  0  0
  -41.1104   -6.5565  -56.4605 H   0  0  0  0  0  0
  -39.5341   -8.1970  -57.6390 H   0  0  0  0  0  0
  -39.1641   -7.9057  -59.3431 H   0  0  0  0  0  0
  -46.2093  -19.8230  -54.2243 H   0  0  0  0  0  0
  -46.8323  -18.5853  -55.3429 H   0  0  0  0  0  0
  -47.8097  -20.0075  -54.9836 H   0  0  0  0  0  0
  -44.1714   -9.4469  -53.3039 H   0  0  0  0  0  0
  -42.8418  -10.5438  -52.8561 H   0  0  0  0  0  0
  -42.4892   -8.8637  -53.2568 H   0  0  0  0  0  0
  -38.6470   -6.1152  -57.2649 H   0  0  0  0  0  0
  -39.5833   -4.6427  -57.6319 H   0  0  0  0  0  0
  -37.9643   -6.2563  -59.6720 H   0  0  0  0  0  0
  -37.4715   -4.6802  -59.0006 H   0  0  0  0  0  0
  -44.9368  -17.7856  -57.5641 H   0  0  0  0  0  0
  -43.0440  -13.1724  -57.9717 H   0  0  0  0  0  0
  -39.8283   -5.2564  -60.4823 H   0  0  0  0  0  0
  1  2  2  0  0  0
  1  3  1  0  0  0
  1 34  1  0  0  0
  2  6  1  0  0  0
  2 35  1  0  0  0
  3  8  2  0  0  0
  3 36  1  0  0  0
  4 10  2  0  0  0
  4 11  1  0  0  0
  4 37  1  0  0  0
  5  9  2  0  0  0
  5 23  1  0  0  0
  5 38  1  0  0  0
  6  7  2  0  0  0
  6 19  1  0  0  0
  7  8  1  0  0  0
  7 28  1  0  0  0
  8 33  1  0  0  0
  9 14  1  0  0  0
  9 32  1  0  0  0
 10 24  1  0  0  0
 10 26  1  0  0  0
 11 25  2  0  0  0
 11 29  1  0  0  0
 12 20  1  0  0  0
 12 24  2  0  0  0
 12 25  1  0  0  0
 13 23  2  0  0  0
 13 29  1  0  0  0
 13 32  1  0  0  0
 14 28  1  0  0  0
 14 30  2  0  0  0
 15 17  1  0  0  0
 15 26  1  0  0  0
 15 39  1  0  0  0
 15 40  1  0  0  0
 16 18  1  0  0  0
 16 26  1  0  0  0
 16 41  1  0  0  0
 16 42  1  0  0  0
 17 27  1  0  0  0
 17 43  1  0  0  0
 17 44  1  0  0  0
 18 27  1  0  0  0
 18 45  1  0  0  0
 18 46  1  0  0  0
 19 47  1  0  0  0
 19 48  1  0  0  0
 19 49  1  0  0  0
 20 50  1  0  0  0
 20 51  1  0  0  0
 20 52  1  0  0  0
 21 22  1  0  0  0
 21 27  1  0  0  0
 21 53  1  0  0  0
 21 54  1  0  0  0
 22 31  1  0  0  0
 22 55  1  0  0  0
 22 56  1  0  0  0
 28 57  1  0  0  0
 29 58  1  0  0  0
 31 59  1  0  0  0
M  END
> <s_m_entry_id>
12

> <s_m_entry_name>
cAbl-bosutinib_nowat-posed-Dasatinib.1

> <s_m_Source_Path>
/Users/albaness/github/kinase-resistance-mutants/sensitivity-analysis/yank/input

> <s_m_Source_File>
cAbl-bosutinib_nowat-posed-Dasatinib.mol2

> <i_m_Source_File_Index>
1

$$$$
~{N}-(3-ethynylphenyl)-6,7-bis(2-methoxyethoxy)quinazolin-4-amine
                    3D
 Structure written by MMmdl.
 52 54  0  0  1  0            999 V2000
  -38.0905   -6.8182  -56.2885 C   0  0  0  0  0  0
  -38.8902   -7.3078  -57.0385 C   0  0  0  0  0  0
  -40.9471   -7.9247  -60.0791 C   0  0  0  0  0  0
  -40.0185   -7.3561  -59.2073 C   0  0  0  0  0  0
  -41.6990   -9.0278  -59.6747 C   0  0  0  0  0  0
  -40.5936   -8.9937  -57.5267 C   0  0  0  0  0  0
  -42.6324  -13.4459  -57.4351 C   0  0  0  0  0  0
  -43.5602  -14.1529  -54.9140 C   0  0  0  0  0  0
  -43.4552  -10.5796  -54.6368 C   0  0  0  0  0  0
  -39.8417   -7.8906  -57.9311 C   0  0  0  0  0  0
  -42.9138  -12.4566  -56.4769 C   0  0  0  0  0  0
  -43.3833  -12.8011  -55.1989 C   0  0  0  0  0  0
  -41.5222   -9.5623  -58.3985 C   0  0  0  0  0  0
  -42.8181  -14.7892  -57.1234 C   0  0  0  0  0  0
  -43.2826  -15.1427  -55.8614 C   0  0  0  0  0  0
  -42.7495  -11.0966  -56.7242 C   0  0  0  0  0  0
  -43.5858  -17.3800  -62.3871 C   0  0  0  0  0  0
  -46.1920  -19.3527  -56.5457 C   0  0  0  0  0  0
  -42.7157  -15.3790  -59.4250 C   0  0  0  0  0  0
  -44.4968  -16.7410  -54.5860 C   0  0  0  0  0  0
  -43.0755  -16.6169  -60.2238 C   0  0  0  0  0  0
  -45.0824  -18.1063  -54.8910 C   0  0  0  0  0  0
  -43.6553  -11.8631  -54.2748 N   0  0  0  0  0  0
  -43.0123  -10.1318  -55.8227 N   0  0  0  0  0  0
  -42.2792  -10.6725  -57.9920 N   0  0  0  0  0  0
  -42.5437  -15.7421  -58.0560 O   0  0  0  0  0  0
  -43.4720  -16.4518  -55.5346 O   0  0  0  0  0  0
  -43.2670  -16.2515  -61.5851 O   0  0  0  0  0  0
  -45.6462  -18.0883  -56.1969 O   0  0  0  0  0  0
  -37.3810   -6.3845  -55.6231 H   0  0  0  0  0  0
  -41.0848   -7.5085  -61.0728 H   0  0  0  0  0  0
  -39.4400   -6.4965  -59.5372 H   0  0  0  0  0  0
  -42.4199   -9.4629  -60.3621 H   0  0  0  0  0  0
  -40.4589   -9.4140  -56.5318 H   0  0  0  0  0  0
  -42.2687  -13.1878  -58.4269 H   0  0  0  0  0  0
  -43.9231  -14.4492  -53.9310 H   0  0  0  0  0  0
  -43.6762   -9.8289  -53.8878 H   0  0  0  0  0  0
  -43.7257  -17.0635  -63.4236 H   0  0  0  0  0  0
  -44.4989  -17.8487  -62.0117 H   0  0  0  0  0  0
  -42.7628  -18.0968  -62.3354 H   0  0  0  0  0  0
  -46.6151  -19.3027  -57.5520 H   0  0  0  0  0  0
  -46.9675  -19.6269  -55.8261 H   0  0  0  0  0  0
  -45.3966  -20.1014  -56.5242 H   0  0  0  0  0  0
  -43.5100  -14.6285  -59.4813 H   0  0  0  0  0  0
  -41.7766  -14.9499  -59.7863 H   0  0  0  0  0  0
  -44.0526  -16.7168  -53.5862 H   0  0  0  0  0  0
  -45.2663  -15.9677  -54.6665 H   0  0  0  0  0  0
  -44.0038  -17.0668  -59.8578 H   0  0  0  0  0  0
  -42.2664  -17.3516  -60.1767 H   0  0  0  0  0  0
  -45.8749  -18.3634  -54.1812 H   0  0  0  0  0  0
  -44.3018  -18.8722  -54.8653 H   0  0  0  0  0  0
  -42.5433  -11.2957  -58.7458 H   0  0  0  0  0  0
  1  2  3  0  0  0
  1 30  1  0  0  0
  2 10  1  0  0  0
  3  4  2  0  0  0
  3  5  1  0  0  0
  3 31  1  0  0  0
  4 10  1  0  0  0
  4 32  1  0  0  0
  5 13  2  0  0  0
  5 33  1  0  0  0
  6 10  2  0  0  0
  6 13  1  0  0  0
  6 34  1  0  0  0
  7 11  2  0  0  0
  7 14  1  0  0  0
  7 35  1  0  0  0
  8 12  2  0  0  0
  8 15  1  0  0  0
  8 36  1  0  0  0
  9 23  2  0  0  0
  9 24  1  0  0  0
  9 37  1  0  0  0
 11 12  1  0  0  0
 11 16  1  0  0  0
 12 23  1  0  0  0
 13 25  1  0  0  0
 14 15  2  0  0  0
 14 26  1  0  0  0
 15 27  1  0  0  0
 16 24  2  0  0  0
 16 25  1  0  0  0
 17 28  1  0  0  0
 17 38  1  0  0  0
 17 39  1  0  0  0
 17 40  1  0  0  0
 18 29  1  0  0  0
 18 41  1  0  0  0
 18 42  1  0  0  0
 18 43  1  0  0  0
 19 21  1  0  0  0
 19 26  1  0  0  0
 19 44  1  0  0  0
 19 45  1  0  0  0
 20 22  1  0  0  0
 20 27  1  0  0  0
 20 46  1  0  0  0
 20 47  1  0  0  0
 21 28  1  0  0  0
 21 48  1  0  0  0
 21 49  1  0  0  0
 22 29  1  0  0  0
 22 50  1  0  0  0
 22 51  1  0  0  0
 25 52  1  0  0  0
M  END
> <s_m_entry_id>
13

> <s_m_entry_name>
cAbl-bosutinib_nowat-posed-Erlotinib.1

> <s_m_Source_Path>
/Users/albaness/github/kinase-resistance-mutants/sensitivity-analysis/yank/input

> <s_m_Source_File>
cAbl-bosutinib_nowat-posed-Erlotinib.mol2

> <i_m_Source_File_Index>
1

$$$$
4-[(4-methylpiperazin-1-yl)methyl]-~{N}-[4-methyl-3-[[4-(3-pyridyl)pyrimidin-2-yl]amino]phenyl]benzamide
                    3D
 Structure written by MMmdl.
 68 72  0  0  1  0            999 V2000
  -44.4218   -8.1265  -55.4289 C   0  0  0  0  0  0
  -43.6343   -7.6836  -56.4858 C   0  0  0  0  0  0
  -43.7512  -14.2871  -56.1628 C   0  0  0  0  0  0
  -42.1990  -15.5811  -57.4868 C   0  0  0  0  0  0
  -43.9265  -15.3738  -55.3062 C   0  0  0  0  0  0
  -42.3742  -16.6679  -56.6302 C   0  0  0  0  0  0
  -42.0333  -12.2713  -62.9165 C   0  0  0  0  0  0
  -42.3128  -13.1270  -61.8510 C   0  0  0  0  0  0
  -41.0382   -6.7651  -57.9284 C   0  0  0  0  0  0
  -41.5132  -11.4564  -60.2996 C   0  0  0  0  0  0
  -44.0534   -9.3015  -54.7937 C   0  0  0  0  0  0
  -40.2685   -6.4645  -59.0337 C   0  0  0  0  0  0
  -42.2351   -9.5806  -56.1699 C   0  0  0  0  0  0
  -42.5183   -8.4188  -56.8697 C   0  0  0  0  0  0
  -42.8875  -14.3908  -57.2532 C   0  0  0  0  0  0
  -43.2380  -16.5642  -55.5398 C   0  0  0  0  0  0
  -41.4936  -11.0082  -62.6735 C   0  0  0  0  0  0
  -42.0528  -12.7196  -60.5426 C   0  0  0  0  0  0
  -41.2336  -10.6007  -61.3651 C   0  0  0  0  0  0
  -41.6817   -7.9854  -57.9630 C   0  0  0  0  0  0
  -40.8075   -8.4451  -60.0103 C   0  0  0  0  0  0
  -42.7036  -13.2581  -58.1468 C   0  0  0  0  0  0
  -44.9460  -21.1452  -55.1600 C   0  0  0  0  0  0
  -46.5675  -19.4716  -55.7808 C   0  0  0  0  0  0
  -44.0621  -20.0581  -54.5388 C   0  0  0  0  0  0
  -45.6839  -18.3850  -55.1584 C   0  0  0  0  0  0
  -41.2042  -10.1120  -63.8334 C   0  0  0  0  0  0
  -47.2028  -21.7967  -55.7055 C   0  0  0  0  0  0
  -43.4262  -17.7333  -54.6168 C   0  0  0  0  0  0
  -42.9765  -10.0426  -55.1381 N   0  0  0  0  0  0
  -40.1303   -7.2843  -60.0963 N   0  0  0  0  0  0
  -41.5883   -8.8532  -58.9918 N   0  0  0  0  0  0
  -46.3618  -20.7607  -55.1092 N   0  0  0  0  0  0
  -44.2682  -18.7695  -55.2113 N   0  0  0  0  0  0
  -40.6865   -9.3257  -61.1012 N   0  0  0  0  0  0
  -42.3367  -13.5900  -59.4602 N   0  0  0  0  0  0
  -42.8308  -12.0905  -57.7528 O   0  0  0  0  0  0
  -45.2958   -7.5698  -55.1112 H   0  0  0  0  0  0
  -43.9023   -6.7644  -57.0007 H   0  0  0  0  0  0
  -44.2923  -13.3640  -55.9719 H   0  0  0  0  0  0
  -41.5235  -15.6734  -58.3333 H   0  0  0  0  0  0
  -44.6012  -15.2842  -54.4589 H   0  0  0  0  0  0
  -41.8334  -17.5915  -56.8195 H   0  0  0  0  0  0
  -42.2397  -12.5977  -63.9324 H   0  0  0  0  0  0
  -42.7336  -14.1091  -62.0516 H   0  0  0  0  0  0
  -41.1223   -6.0779  -57.0958 H   0  0  0  0  0  0
  -41.3101  -11.1390  -59.2788 H   0  0  0  0  0  0
  -44.6350   -9.6898  -53.9637 H   0  0  0  0  0  0
  -39.7252   -5.5278  -59.0973 H   0  0  0  0  0  0
  -41.3777  -10.1992  -56.4193 H   0  0  0  0  0  0
  -44.6278  -21.3329  -56.1945 H   0  0  0  0  0  0
  -44.7943  -22.0752  -54.5987 H   0  0  0  0  0  0
  -47.6153  -19.1639  -55.6789 H   0  0  0  0  0  0
  -46.3535  -19.5508  -56.8554 H   0  0  0  0  0  0
  -44.2757  -19.9781  -53.4642 H   0  0  0  0  0  0
  -43.0143  -20.3659  -54.6409 H   0  0  0  0  0  0
  -45.8362  -17.4545  -55.7187 H   0  0  0  0  0  0
  -46.0014  -18.1987  -54.1234 H   0  0  0  0  0  0
  -42.0789   -9.4922  -64.0613 H   0  0  0  0  0  0
  -40.3536   -9.4528  -63.6217 H   0  0  0  0  0  0
  -40.9441  -10.6927  -64.7269 H   0  0  0  0  0  0
  -48.2537  -21.4989  -55.6617 H   0  0  0  0  0  0
  -47.0814  -22.7395  -55.1652 H   0  0  0  0  0  0
  -46.9248  -21.9537  -56.7512 H   0  0  0  0  0  0
  -42.4609  -18.1862  -54.3655 H   0  0  0  0  0  0
  -43.8933  -17.4208  -53.6769 H   0  0  0  0  0  0
  -40.0904   -8.9791  -61.8460 H   0  0  0  0  0  0
  -42.2653  -14.5843  -59.6616 H   0  0  0  0  0  0
  1  2  2  0  0  0
  1 11  1  0  0  0
  1 38  1  0  0  0
  2 14  1  0  0  0
  2 39  1  0  0  0
  3  5  2  0  0  0
  3 15  1  0  0  0
  3 40  1  0  0  0
  4  6  1  0  0  0
  4 15  2  0  0  0
  4 41  1  0  0  0
  5 16  1  0  0  0
  5 42  1  0  0  0
  6 16  2  0  0  0
  6 43  1  0  0  0
  7  8  2  0  0  0
  7 17  1  0  0  0
  7 44  1  0  0  0
  8 18  1  0  0  0
  8 45  1  0  0  0
  9 12  2  0  0  0
  9 20  1  0  0  0
  9 46  1  0  0  0
 10 18  2  0  0  0
 10 19  1  0  0  0
 10 47  1  0  0  0
 11 30  2  0  0  0
 11 48  1  0  0  0
 12 31  1  0  0  0
 12 49  1  0  0  0
 13 14  2  0  0  0
 13 30  1  0  0  0
 13 50  1  0  0  0
 14 20  1  0  0  0
 15 22  1  0  0  0
 16 29  1  0  0  0
 17 19  2  0  0  0
 17 27  1  0  0  0
 18 36  1  0  0  0
 19 35  1  0  0  0
 20 32  2  0  0  0
 21 31  2  0  0  0
 21 32  1  0  0  0
 21 35  1  0  0  0
 22 36  1  0  0  0
 22 37  2  0  0  0
 23 25  1  0  0  0
 23 33  1  0  0  0
 23 51  1  0  0  0
 23 52  1  0  0  0
 24 26  1  0  0  0
 24 33  1  0  0  0
 24 53  1  0  0  0
 24 54  1  0  0  0
 25 34  1  0  0  0
 25 55  1  0  0  0
 25 56  1  0  0  0
 26 34  1  0  0  0
 26 57  1  0  0  0
 26 58  1  0  0  0
 27 59  1  0  0  0
 27 60  1  0  0  0
 27 61  1  0  0  0
 28 33  1  0  0  0
 28 62  1  0  0  0
 28 63  1  0  0  0
 28 64  1  0  0  0
 29 34  1  0  0  0
 29 65  1  0  0  0
 29 66  1  0  0  0
 35 67  1  0  0  0
 36 68  1  0  0  0
M  END
> <s_m_entry_id>
14

> <s_m_entry_name>
cAbl-bosutinib_nowat-posed-Imatinib.1

> <s_m_Source_Path>
/Users/albaness/github/kinase-resistance-mutants/sensitivity-analysis/yank/input

> <s_m_Source_File>
cAbl-bosutinib_nowat-posed-Imatinib.mol2

> <i_m_Source_File_Index>
1

$$$$
