~{N}-methyl-2-[[3-[(~{E})-2-(2-pyridyl)vinyl]-1~{H}-indazol-6-yl]sulfanyl]benzamide
                    3D
 Structure written by MMmdl.
 46 49  0  0  1  0            999 V2000
  -44.2801  -18.9897  -55.2909 C   0  0  0  0  0  0
  -43.0526  -18.3394  -55.4174 C   0  0  0  0  0  0
  -39.6573   -6.8105  -59.5759 C   0  0  0  0  0  0
  -39.2567   -6.0868  -58.4583 C   0  0  0  0  0  0
  -41.8696  -12.8296  -58.4351 C   0  0  0  0  0  0
  -45.2184  -18.9148  -56.3204 C   0  0  0  0  0  0
  -42.7634  -17.6142  -56.5733 C   0  0  0  0  0  0
  -42.1013  -14.1071  -58.9603 C   0  0  0  0  0  0
  -40.3905   -7.9807  -59.4133 C   0  0  0  0  0  0
  -43.7241  -14.6014  -57.2137 C   0  0  0  0  0  0
  -39.6118   -6.5719  -57.2099 C   0  0  0  0  0  0
  -42.5760  -12.4385  -57.2855 C   0  0  0  0  0  0
  -44.9292  -18.1897  -57.4763 C   0  0  0  0  0  0
  -43.4782  -13.3238  -56.7062 C   0  0  0  0  0  0
  -43.0132  -14.9764  -58.3585 C   0  0  0  0  0  0
  -43.7017  -17.5393  -57.6028 C   0  0  0  0  0  0
  -40.6947   -8.3812  -58.1222 C   0  0  0  0  0  0
  -42.6392  -11.2896  -56.4678 C   0  0  0  0  0  0
  -41.4700   -9.6140  -57.8975 C   0  0  0  0  0  0
  -41.8763  -10.1120  -56.6825 C   0  0  0  0  0  0
  -45.9470  -18.1449  -58.5203 C   0  0  0  0  0  0
  -47.3170  -19.4864  -60.1297 C   0  0  0  0  0  0
  -40.3230   -7.7045  -57.0124 N   0  0  0  0  0  0
  -43.5002  -11.4202  -55.4561 N   0  0  0  0  0  0
  -43.9920  -12.6589  -55.6256 N   0  0  0  0  0  0
  -46.3386  -19.3678  -59.0726 N   0  0  0  0  0  0
  -46.4117  -17.0568  -58.8966 O   0  0  0  0  0  0
  -43.2795  -16.5973  -59.0603 S   0  0  0  0  0  0
  -44.5056  -19.5533  -54.3902 H   0  0  0  0  0  0
  -42.3225  -18.3969  -54.6154 H   0  0  0  0  0  0
  -39.3994   -6.4620  -60.5715 H   0  0  0  0  0  0
  -38.6841   -5.1723  -58.5615 H   0  0  0  0  0  0
  -41.1572  -12.1651  -58.9147 H   0  0  0  0  0  0
  -46.1717  -19.4259  -56.2085 H   0  0  0  0  0  0
  -41.8012  -17.1139  -56.6499 H   0  0  0  0  0  0
  -41.5525  -14.4071  -59.8508 H   0  0  0  0  0  0
  -40.7068   -8.5507  -60.2810 H   0  0  0  0  0  0
  -44.4367  -15.2635  -56.7324 H   0  0  0  0  0  0
  -39.3225   -6.0455  -56.3063 H   0  0  0  0  0  0
  -41.7614  -10.1455  -58.8002 H   0  0  0  0  0  0
  -41.5989   -9.5091  -55.7911 H   0  0  0  0  0  0
  -48.3083  -19.6664  -59.7057 H   0  0  0  0  0  0
  -47.0604  -20.3188  -60.7905 H   0  0  0  0  0  0
  -47.3486  -18.5669  -60.7204 H   0  0  0  0  0  0
  -44.6811  -12.9940  -54.9640 H   0  0  0  0  0  0
  -45.8796  -20.2209  -58.7707 H   0  0  0  0  0  0
  1  2  2  0  0  0
  1  6  1  0  0  0
  1 29  1  0  0  0
  2  7  1  0  0  0
  2 30  1  0  0  0
  3  4  2  0  0  0
  3  9  1  0  0  0
  3 31  1  0  0  0
  4 11  1  0  0  0
  4 32  1  0  0  0
  5  8  2  0  0  0
  5 12  1  0  0  0
  5 33  1  0  0  0
  6 13  2  0  0  0
  6 34  1  0  0  0
  7 16  2  0  0  0
  7 35  1  0  0  0
  8 15  1  0  0  0
  8 36  1  0  0  0
  9 17  2  0  0  0
  9 37  1  0  0  0
 10 14  1  0  0  0
 10 15  2  0  0  0
 10 38  1  0  0  0
 11 23  2  0  0  0
 11 39  1  0  0  0
 12 14  2  0  0  0
 12 18  1  0  0  0
 13 16  1  0  0  0
 13 21  1  0  0  0
 14 25  1  0  0  0
 15 28  1  0  0  0
 16 28  1  0  0  0
 17 19  1  0  0  0
 17 23  1  0  0  0
 18 20  1  0  0  0
 18 24  2  0  0  0
 19 20  2  0  0  0
 19 40  1  0  0  0
 20 41  1  0  0  0
 21 26  1  0  0  0
 21 27  2  0  0  0
 22 26  1  0  0  0
 22 42  1  0  0  0
 22 43  1  0  0  0
 22 44  1  0  0  0
 24 25  1  0  0  0
 25 45  1  0  0  0
 26 46  1  0  0  0
M  END
> <s_m_entry_id>
31

> <s_m_entry_name>
cAbl-gefitinib_nowat-posed-Axitinib.1

> <s_m_Source_Path>
/Users/albaness/github/kinase-resistance-mutants/sensitivity-analysis/yank/input

> <s_m_Source_File>
cAbl-gefitinib_nowat-posed-Axitinib.mol2

> <i_m_Source_File_Index>
1

$$$$
4-(2,4-dichloro-5-methoxy-anilino)-6-methoxy-7-[3-(4-methylpiperazin-1-yl)propoxy]quinoline-3-carbonitrile
                    3D
 Structure written by MMmdl.
 65 68  0  0  1  0            999 V2000
  -42.5711  -12.7351  -55.0632 C   0  0  0  0  0  0
  -41.4524  -13.2330  -59.8298 C   0  0  0  0  0  0
  -42.6007  -15.7585  -59.7577 C   0  0  0  0  0  0
  -42.7537  -10.5095  -59.0807 C   0  0  0  0  0  0
  -41.2978   -8.1651  -58.6721 C   0  0  0  0  0  0
  -43.1008  -14.7311  -56.3457 C   0  0  0  0  0  0
  -42.5512  -13.4662  -56.2916 C   0  0  0  0  0  0
  -42.0060  -13.7194  -58.6333 C   0  0  0  0  0  0
  -42.5913  -15.0021  -58.5889 C   0  0  0  0  0  0
  -41.7128  -10.4878  -58.1525 C   0  0  0  0  0  0
  -41.9965  -12.9575  -57.4571 C   0  0  0  0  0  0
  -41.4754  -14.0109  -60.9838 C   0  0  0  0  0  0
  -42.0503  -15.2751  -60.9473 C   0  0  0  0  0  0
  -43.0666   -9.3590  -59.8047 C   0  0  0  0  0  0
  -40.9849   -9.3156  -57.9481 C   0  0  0  0  0  0
  -42.3387   -8.1868  -59.6004 C   0  0  0  0  0  0
  -44.0580  -11.8068  -64.6441 C   0  0  0  0  0  0
  -45.9520  -13.2339  -65.0822 C   0  0  0  0  0  0
  -43.1121  -12.9875  -64.8887 C   0  0  0  0  0  0
  -45.0056  -14.4140  -65.3280 C   0  0  0  0  0  0
  -46.2009  -10.8371  -65.1763 C   0  0  0  0  0  0
  -39.5534  -13.7956  -62.3679 C   0  0  0  0  0  0
  -44.7715  -10.6531  -60.8412 C   0  0  0  0  0  0
  -43.2965  -16.6435  -64.0526 C   0  0  0  0  0  0
  -42.8640  -15.3843  -64.7919 C   0  0  0  0  0  0
  -43.3678  -16.4472  -62.5430 C   0  0  0  0  0  0
  -42.5873  -12.1416  -54.0661 N   0  0  0  0  0  0
  -43.1304  -15.4984  -57.4593 N   0  0  0  0  0  0
  -45.2984  -11.9619  -65.4138 N   0  0  0  0  0  0
  -43.7664  -14.2590  -64.5565 N   0  0  0  0  0  0
  -41.4218  -11.6604  -57.4398 N   0  0  0  0  0  0
  -40.9348  -13.5253  -62.1350 O   0  0  0  0  0  0
  -44.0888   -9.4088  -60.7053 O   0  0  0  0  0  0
  -42.0844  -16.0587  -62.0712 O   0  0  0  0  0  0
  -39.6884   -9.2459  -56.8085 Cl  0  0  0  0  0  0
  -42.7046   -6.7499  -60.4821 Cl  0  0  0  0  0  0
  -40.9968  -12.2465  -59.8825 H   0  0  0  0  0  0
  -43.0469  -16.7520  -59.7484 H   0  0  0  0  0  0
  -43.3244  -11.4210  -59.2438 H   0  0  0  0  0  0
  -40.7304   -7.2503  -58.5132 H   0  0  0  0  0  0
  -43.5533  -15.1937  -55.4729 H   0  0  0  0  0  0
  -44.2716  -11.7215  -63.5699 H   0  0  0  0  0  0
  -43.5458  -10.8859  -64.9485 H   0  0  0  0  0  0
  -46.8409  -13.3684  -65.7105 H   0  0  0  0  0  0
  -46.2875  -13.2412  -64.0362 H   0  0  0  0  0  0
  -42.7763  -12.9810  -65.9347 H   0  0  0  0  0  0
  -42.2233  -12.8529  -64.2603 H   0  0  0  0  0  0
  -45.5179  -15.3352  -65.0248 H   0  0  0  0  0  0
  -44.7911  -14.4980  -66.4021 H   0  0  0  0  0  0
  -47.1199  -10.9641  -65.7544 H   0  0  0  0  0  0
  -45.7237   -9.8999  -65.4755 H   0  0  0  0  0  0
  -46.4581  -10.7763  -64.1154 H   0  0  0  0  0  0
  -39.2501  -13.3525  -63.3196 H   0  0  0  0  0  0
  -39.3912  -14.8762  -62.3887 H   0  0  0  0  0  0
  -38.9640  -13.3561  -61.5597 H   0  0  0  0  0  0
  -45.5618  -10.5561  -61.5896 H   0  0  0  0  0  0
  -45.2003  -10.9416  -59.8782 H   0  0  0  0  0  0
  -44.0591  -11.4161  -61.1638 H   0  0  0  0  0  0
  -44.2828  -16.9568  -64.4171 H   0  0  0  0  0  0
  -42.6157  -17.4738  -64.2792 H   0  0  0  0  0  0
  -41.8707  -15.0724  -64.4546 H   0  0  0  0  0  0
  -42.8198  -15.5575  -65.8719 H   0  0  0  0  0  0
  -44.0840  -15.6633  -62.2781 H   0  0  0  0  0  0
  -43.6551  -17.3772  -62.0421 H   0  0  0  0  0  0
  -40.6555  -11.5728  -56.7840 H   0  0  0  0  0  0
  1  7  1  0  0  0
  1 27  3  0  0  0
  2  8  2  0  0  0
  2 12  1  0  0  0
  2 37  1  0  0  0
  3  9  2  0  0  0
  3 13  1  0  0  0
  3 38  1  0  0  0
  4 10  2  0  0  0
  4 14  1  0  0  0
  4 39  1  0  0  0
  5 15  2  0  0  0
  5 16  1  0  0  0
  5 40  1  0  0  0
  6  7  1  0  0  0
  6 28  2  0  0  0
  6 41  1  0  0  0
  7 11  2  0  0  0
  8  9  1  0  0  0
  8 11  1  0  0  0
  9 28  1  0  0  0
 10 15  1  0  0  0
 10 31  1  0  0  0
 11 31  1  0  0  0
 12 13  2  0  0  0
 12 32  1  0  0  0
 13 34  1  0  0  0
 14 16  2  0  0  0
 14 33  1  0  0  0
 15 35  1  0  0  0
 16 36  1  0  0  0
 17 19  1  0  0  0
 17 29  1  0  0  0
 17 42  1  0  0  0
 17 43  1  0  0  0
 18 20  1  0  0  0
 18 29  1  0  0  0
 18 44  1  0  0  0
 18 45  1  0  0  0
 19 30  1  0  0  0
 19 46  1  0  0  0
 19 47  1  0  0  0
 20 30  1  0  0  0
 20 48  1  0  0  0
 20 49  1  0  0  0
 21 29  1  0  0  0
 21 50  1  0  0  0
 21 51  1  0  0  0
 21 52  1  0  0  0
 22 32  1  0  0  0
 22 53  1  0  0  0
 22 54  1  0  0  0
 22 55  1  0  0  0
 23 33  1  0  0  0
 23 56  1  0  0  0
 23 57  1  0  0  0
 23 58  1  0  0  0
 24 25  1  0  0  0
 24 26  1  0  0  0
 24 59  1  0  0  0
 24 60  1  0  0  0
 25 30  1  0  0  0
 25 61  1  0  0  0
 25 62  1  0  0  0
 26 34  1  0  0  0
 26 63  1  0  0  0
 26 64  1  0  0  0
 31 65  1  0  0  0
M  END
> <s_m_entry_id>
32

> <s_m_entry_name>
cAbl-gefitinib_nowat-posed-Bosutinib.1

> <s_m_Source_Path>
/Users/albaness/github/kinase-resistance-mutants/sensitivity-analysis/yank/input

> <s_m_Source_File>
cAbl-gefitinib_nowat-posed-Bosutinib.mol2

> <i_m_Source_File_Index>
1

$$$$
~{N}-(2-chloro-6-methyl-phenyl)-2-[[6-[4-(2-hydroxyethyl)piperazin-1-yl]-2-methyl-pyrimidin-4-yl]amino]thiazole-5-carboxamide
                    3D
 Structure written by MMmdl.
 59 62  0  0  1  0            999 V2000
  -44.5448  -19.6704  -54.7827 C   0  0  0  0  0  0
  -45.1946  -19.0598  -55.8554 C   0  0  0  0  0  0
  -43.4510  -19.0462  -54.1831 C   0  0  0  0  0  0
  -41.5717   -9.6954  -59.6436 C   0  0  0  0  0  0
  -42.2976  -13.5535  -57.6743 C   0  0  0  0  0  0
  -44.7504  -17.8251  -56.3285 C   0  0  0  0  0  0
  -43.6565  -17.2009  -55.7289 C   0  0  0  0  0  0
  -43.0068  -17.8115  -54.6562 C   0  0  0  0  0  0
  -42.6652  -13.6028  -56.3459 C   0  0  0  0  0  0
  -41.1003   -8.9138  -60.6786 C   0  0  0  0  0  0
  -41.1792   -9.3101  -58.3780 C   0  0  0  0  0  0
  -39.9940   -7.5639  -59.2223 C   0  0  0  0  0  0
  -41.9724  -11.4455  -57.1637 C   0  0  0  0  0  0
  -43.1175  -14.7000  -55.5588 C   0  0  0  0  0  0
  -41.7333  -10.6780  -62.3002 C   0  0  0  0  0  0
  -40.9866   -8.4447  -63.0894 C   0  0  0  0  0  0
  -42.5916  -10.7920  -63.5626 C   0  0  0  0  0  0
  -41.8697   -8.6303  -64.3255 C   0  0  0  0  0  0
  -45.4689  -17.1971  -57.4789 C   0  0  0  0  0  0
  -39.1180   -6.3802  -58.9883 C   0  0  0  0  0  0
  -42.7912  -10.2112  -65.8913 C   0  0  0  0  0  0
  -41.9342   -9.9177  -67.1090 C   0  0  0  0  0  0
  -41.9004  -12.3172  -58.1451 N   0  0  0  0  0  0
  -40.3067   -7.8369  -60.5034 N   0  0  0  0  0  0
  -40.3879   -8.2459  -58.1299 N   0  0  0  0  0  0
  -41.4754   -9.2711  -61.9785 N   0  0  0  0  0  0
  -41.9908  -10.0504  -64.6779 N   0  0  0  0  0  0
  -43.2132  -15.9479  -56.2223 N   0  0  0  0  0  0
  -41.6415  -10.0863  -57.2870 N   0  0  0  0  0  0
  -43.4505  -14.5833  -54.3544 O   0  0  0  0  0  0
  -42.7064  -10.1098  -68.2874 O   0  0  0  0  0  0
  -42.5093  -12.0441  -55.6476 S   0  0  0  0  0  0
  -41.6473  -17.0773  -53.8823 Cl  0  0  0  0  0  0
  -44.8914  -20.6314  -54.4138 H   0  0  0  0  0  0
  -46.0453  -19.5550  -56.3163 H   0  0  0  0  0  0
  -42.9546  -19.5368  -53.3495 H   0  0  0  0  0  0
  -42.2087  -10.5559  -59.8136 H   0  0  0  0  0  0
  -42.3004  -14.3968  -58.3526 H   0  0  0  0  0  0
  -42.2594  -11.1654  -61.4699 H   0  0  0  0  0  0
  -40.7819  -11.2063  -62.4470 H   0  0  0  0  0  0
  -39.9498   -8.7181  -63.3267 H   0  0  0  0  0  0
  -40.9942   -7.3853  -62.8042 H   0  0  0  0  0  0
  -42.6795  -11.8542  -63.8214 H   0  0  0  0  0  0
  -43.6045  -10.4224  -63.3524 H   0  0  0  0  0  0
  -42.8596   -8.1919  -64.1395 H   0  0  0  0  0  0
  -41.4176   -8.0739  -65.1556 H   0  0  0  0  0  0
  -46.2824  -16.5597  -57.1149 H   0  0  0  0  0  0
  -44.7884  -16.5859  -58.0838 H   0  0  0  0  0  0
  -45.8917  -17.9595  -58.1444 H   0  0  0  0  0  0
  -39.7247   -5.4763  -58.8535 H   0  0  0  0  0  0
  -38.4937   -6.5163  -58.0955 H   0  0  0  0  0  0
  -38.4341   -6.2174  -59.8317 H   0  0  0  0  0  0
  -43.6444   -9.5280  -65.8324 H   0  0  0  0  0  0
  -43.1587  -11.2413  -65.9235 H   0  0  0  0  0  0
  -41.0854  -10.6077  -67.1451 H   0  0  0  0  0  0
  -41.5581   -8.8895  -67.0983 H   0  0  0  0  0  0
  -42.9208  -15.9445  -57.1964 H   0  0  0  0  0  0
  -41.7537   -9.5512  -56.4338 H   0  0  0  0  0  0
  -42.1240   -9.9128  -69.0385 H   0  0  0  0  0  0
  1  2  2  0  0  0
  1  3  1  0  0  0
  1 34  1  0  0  0
  2  6  1  0  0  0
  2 35  1  0  0  0
  3  8  2  0  0  0
  3 36  1  0  0  0
  4 10  2  0  0  0
  4 11  1  0  0  0
  4 37  1  0  0  0
  5  9  2  0  0  0
  5 23  1  0  0  0
  5 38  1  0  0  0
  6  7  2  0  0  0
  6 19  1  0  0  0
  7  8  1  0  0  0
  7 28  1  0  0  0
  8 33  1  0  0  0
  9 14  1  0  0  0
  9 32  1  0  0  0
 10 24  1  0  0  0
 10 26  1  0  0  0
 11 25  2  0  0  0
 11 29  1  0  0  0
 12 20  1  0  0  0
 12 24  2  0  0  0
 12 25  1  0  0  0
 13 23  2  0  0  0
 13 29  1  0  0  0
 13 32  1  0  0  0
 14 28  1  0  0  0
 14 30  2  0  0  0
 15 17  1  0  0  0
 15 26  1  0  0  0
 15 39  1  0  0  0
 15 40  1  0  0  0
 16 18  1  0  0  0
 16 26  1  0  0  0
 16 41  1  0  0  0
 16 42  1  0  0  0
 17 27  1  0  0  0
 17 43  1  0  0  0
 17 44  1  0  0  0
 18 27  1  0  0  0
 18 45  1  0  0  0
 18 46  1  0  0  0
 19 47  1  0  0  0
 19 48  1  0  0  0
 19 49  1  0  0  0
 20 50  1  0  0  0
 20 51  1  0  0  0
 20 52  1  0  0  0
 21 22  1  0  0  0
 21 27  1  0  0  0
 21 53  1  0  0  0
 21 54  1  0  0  0
 22 31  1  0  0  0
 22 55  1  0  0  0
 22 56  1  0  0  0
 28 57  1  0  0  0
 29 58  1  0  0  0
 31 59  1  0  0  0
M  END
> <s_m_entry_id>
33

> <s_m_entry_name>
cAbl-gefitinib_nowat-posed-Dasatinib.1

> <s_m_Source_Path>
/Users/albaness/github/kinase-resistance-mutants/sensitivity-analysis/yank/input

> <s_m_Source_File>
cAbl-gefitinib_nowat-posed-Dasatinib.mol2

> <i_m_Source_File_Index>
1

$$$$
~{N}-(3-ethynylphenyl)-6,7-bis(2-methoxyethoxy)quinazolin-4-amine
                    3D
 Structure written by MMmdl.
 52 54  0  0  1  0            999 V2000
  -38.3844   -5.8170  -56.9515 C   0  0  0  0  0  0
  -39.0615   -6.4783  -57.6896 C   0  0  0  0  0  0
  -40.8916   -7.6508  -60.7076 C   0  0  0  0  0  0
  -40.1033   -6.8680  -59.8704 C   0  0  0  0  0  0
  -41.4513   -8.8329  -60.2271 C   0  0  0  0  0  0
  -40.4365   -8.4613  -58.0733 C   0  0  0  0  0  0
  -42.5370  -13.2086  -58.0954 C   0  0  0  0  0  0
  -43.2585  -14.0584  -55.5902 C   0  0  0  0  0  0
  -42.5571  -10.6121  -54.9479 C   0  0  0  0  0  0
  -39.8735   -7.2744  -58.5549 C   0  0  0  0  0  0
  -42.5279  -12.2840  -57.0333 C   0  0  0  0  0  0
  -42.8949  -12.7210  -55.7548 C   0  0  0  0  0  0
  -41.2378   -9.2530  -58.9019 C   0  0  0  0  0  0
  -42.9312  -14.5410  -57.9349 C   0  0  0  0  0  0
  -43.2817  -14.9759  -56.6570 C   0  0  0  0  0  0
  -42.1829  -10.9209  -57.1851 C   0  0  0  0  0  0
  -44.2244  -15.3752  -63.6544 C   0  0  0  0  0  0
  -45.7964  -17.5468  -52.4448 C   0  0  0  0  0  0
  -43.0072  -14.7978  -60.2685 C   0  0  0  0  0  0
  -43.5031  -16.8863  -55.2454 C   0  0  0  0  0  0
  -43.5349  -15.6701  -61.3934 C   0  0  0  0  0  0
  -44.8256  -16.9062  -54.4922 C   0  0  0  0  0  0
  -42.9097  -11.8858  -54.7062 N   0  0  0  0  0  0
  -42.1944  -10.0823  -56.1263 N   0  0  0  0  0  0
  -41.8426  -10.4494  -58.4791 N   0  0  0  0  0  0
  -42.9947  -15.4377  -58.9878 O   0  0  0  0  0  0
  -43.6558  -16.2889  -56.5329 O   0  0  0  0  0  0
  -43.8792  -14.7517  -62.4341 O   0  0  0  0  0  0
  -44.6012  -17.4845  -53.2103 O   0  0  0  0  0  0
  -37.7862   -5.2336  -56.2926 H   0  0  0  0  0  0
  -41.0744   -7.3435  -61.7328 H   0  0  0  0  0  0
  -39.6740   -5.9470  -60.2547 H   0  0  0  0  0  0
  -42.0670   -9.4299  -60.8975 H   0  0  0  0  0  0
  -40.2385   -8.7617  -57.0475 H   0  0  0  0  0  0
  -42.2355  -12.8602  -59.0770 H   0  0  0  0  0  0
  -43.5455  -14.3705  -54.5884 H   0  0  0  0  0  0
  -42.5728   -9.9371  -54.1015 H   0  0  0  0  0  0
  -44.6013  -14.6013  -64.3303 H   0  0  0  0  0  0
  -45.0067  -16.1238  -63.5062 H   0  0  0  0  0  0
  -43.3364  -15.8250  -64.1047 H   0  0  0  0  0  0
  -45.5603  -17.9933  -51.4751 H   0  0  0  0  0  0
  -46.5395  -18.1732  -52.9471 H   0  0  0  0  0  0
  -46.1987  -16.5428  -52.2789 H   0  0  0  0  0  0
  -43.6519  -13.9087  -60.2429 H   0  0  0  0  0  0
  -41.9853  -14.4887  -60.5260 H   0  0  0  0  0  0
  -43.1813  -17.9215  -55.4110 H   0  0  0  0  0  0
  -42.6929  -16.4383  -54.6551 H   0  0  0  0  0  0
  -44.4183  -16.2361  -61.0811 H   0  0  0  0  0  0
  -42.7631  -16.3694  -61.7337 H   0  0  0  0  0  0
  -45.5621  -17.4955  -55.0507 H   0  0  0  0  0  0
  -45.2317  -15.8950  -54.3797 H   0  0  0  0  0  0
  -42.3365  -10.9225  -59.2290 H   0  0  0  0  0  0
  1  2  3  0  0  0
  1 30  1  0  0  0
  2 10  1  0  0  0
  3  4  2  0  0  0
  3  5  1  0  0  0
  3 31  1  0  0  0
  4 10  1  0  0  0
  4 32  1  0  0  0
  5 13  2  0  0  0
  5 33  1  0  0  0
  6 10  2  0  0  0
  6 13  1  0  0  0
  6 34  1  0  0  0
  7 11  2  0  0  0
  7 14  1  0  0  0
  7 35  1  0  0  0
  8 12  2  0  0  0
  8 15  1  0  0  0
  8 36  1  0  0  0
  9 23  2  0  0  0
  9 24  1  0  0  0
  9 37  1  0  0  0
 11 12  1  0  0  0
 11 16  1  0  0  0
 12 23  1  0  0  0
 13 25  1  0  0  0
 14 15  2  0  0  0
 14 26  1  0  0  0
 15 27  1  0  0  0
 16 24  2  0  0  0
 16 25  1  0  0  0
 17 28  1  0  0  0
 17 38  1  0  0  0
 17 39  1  0  0  0
 17 40  1  0  0  0
 18 29  1  0  0  0
 18 41  1  0  0  0
 18 42  1  0  0  0
 18 43  1  0  0  0
 19 21  1  0  0  0
 19 26  1  0  0  0
 19 44  1  0  0  0
 19 45  1  0  0  0
 20 22  1  0  0  0
 20 27  1  0  0  0
 20 46  1  0  0  0
 20 47  1  0  0  0
 21 28  1  0  0  0
 21 48  1  0  0  0
 21 49  1  0  0  0
 22 29  1  0  0  0
 22 50  1  0  0  0
 22 51  1  0  0  0
 25 52  1  0  0  0
M  END
> <s_m_entry_id>
34

> <s_m_entry_name>
cAbl-gefitinib_nowat-posed-Erlotinib.1

> <s_m_Source_Path>
/Users/albaness/github/kinase-resistance-mutants/sensitivity-analysis/yank/input

> <s_m_Source_File>
cAbl-gefitinib_nowat-posed-Erlotinib.mol2

> <i_m_Source_File_Index>
1

$$$$
~{N}-(3-chloro-4-fluoro-phenyl)-7-methoxy-6-(3-morpholinopropoxy)quinazolin-4-amine
                    3D
 Structure written by MMmdl.
 55 58  0  0  1  0            999 V2000
  -41.5629   -9.0393  -60.2324 C   0  0  0  0  0  0
  -41.0236   -7.8460  -60.7109 C   0  0  0  0  0  0
  -42.6908  -13.4447  -57.9535 C   0  0  0  0  0  0
  -43.3583  -14.0995  -55.3502 C   0  0  0  0  0  0
  -40.5202   -8.6676  -58.0875 C   0  0  0  0  0  0
  -42.5987  -10.6518  -54.9450 C   0  0  0  0  0  0
  -42.6383  -12.4437  -56.9521 C   0  0  0  0  0  0
  -42.9792  -12.7903  -55.6310 C   0  0  0  0  0  0
  -41.3255   -9.4674  -58.9130 C   0  0  0  0  0  0
  -43.0739  -14.7526  -57.6560 C   0  0  0  0  0  0
  -43.4150  -15.0842  -56.3420 C   0  0  0  0  0  0
  -40.2373   -7.0683  -59.8716 C   0  0  0  0  0  0
  -39.9804   -7.4730  -58.5672 C   0  0  0  0  0  0
  -42.2736  -11.0925  -57.1749 C   0  0  0  0  0  0
  -43.9051  -15.2599  -63.7637 C   0  0  0  0  0  0
  -44.8012  -13.1665  -62.9904 C   0  0  0  0  0  0
  -44.9476  -15.2524  -64.8800 C   0  0  0  0  0  0
  -45.8141  -13.2044  -64.1301 C   0  0  0  0  0  0
  -44.0346  -16.7835  -54.7874 C   0  0  0  0  0  0
  -42.9932  -15.8638  -60.9889 C   0  0  0  0  0  0
  -43.4808  -14.4867  -61.4642 C   0  0  0  0  0  0
  -42.2398  -15.7894  -59.6590 C   0  0  0  0  0  0
  -42.9599  -11.9021  -54.6296 N   0  0  0  0  0  0
  -42.2554  -10.1995  -56.1575 N   0  0  0  0  0  0
  -44.4231  -14.5354  -62.5952 N   0  0  0  0  0  0
  -41.9189  -10.6723  -58.4814 N   0  0  0  0  0  0
  -45.2777  -13.9137  -65.2464 O   0  0  0  0  0  0
  -43.7901  -16.3868  -56.1310 O   0  0  0  0  0  0
  -43.1829  -15.7484  -58.5869 O   0  0  0  0  0  0
  -39.7281   -5.9192  -60.3363 F   0  0  0  0  0  0
  -39.0004   -6.5051  -57.5356 Cl  0  0  0  0  0  0
  -42.1823   -9.6374  -60.8979 H   0  0  0  0  0  0
  -41.2209   -7.5273  -61.7294 H   0  0  0  0  0  0
  -42.4424  -13.1872  -58.9779 H   0  0  0  0  0  0
  -43.6208  -14.3361  -54.3212 H   0  0  0  0  0  0
  -40.3023   -8.9672  -57.0662 H   0  0  0  0  0  0
  -42.5846   -9.9306  -54.1378 H   0  0  0  0  0  0
  -43.6939  -16.3050  -63.5162 H   0  0  0  0  0  0
  -42.9770  -14.7947  -64.1190 H   0  0  0  0  0  0
  -43.9119  -12.6101  -63.3157 H   0  0  0  0  0  0
  -45.2427  -12.6303  -62.1428 H   0  0  0  0  0  0
  -44.5479  -15.7533  -65.7672 H   0  0  0  0  0  0
  -45.8591  -15.7865  -64.5833 H   0  0  0  0  0  0
  -46.7573  -13.6689  -63.8179 H   0  0  0  0  0  0
  -46.0400  -12.1859  -64.4617 H   0  0  0  0  0  0
  -44.2625  -17.8533  -54.7940 H   0  0  0  0  0  0
  -44.9034  -16.2607  -54.3747 H   0  0  0  0  0  0
  -43.1472  -16.6375  -54.1625 H   0  0  0  0  0  0
  -43.8513  -16.5391  -60.8843 H   0  0  0  0  0  0
  -42.3158  -16.2865  -61.7397 H   0  0  0  0  0  0
  -43.9945  -13.9949  -60.6303 H   0  0  0  0  0  0
  -42.6073  -13.8705  -61.7153 H   0  0  0  0  0  0
  -41.6791  -16.7225  -59.5297 H   0  0  0  0  0  0
  -41.4988  -14.9833  -59.6523 H   0  0  0  0  0  0
  -42.3764  -11.1858  -59.2267 H   0  0  0  0  0  0
  1  2  2  0  0  0
  1  9  1  0  0  0
  1 32  1  0  0  0
  2 12  1  0  0  0
  2 33  1  0  0  0
  3  7  2  0  0  0
  3 10  1  0  0  0
  3 34  1  0  0  0
  4  8  2  0  0  0
  4 11  1  0  0  0
  4 35  1  0  0  0
  5  9  2  0  0  0
  5 13  1  0  0  0
  5 36  1  0  0  0
  6 23  2  0  0  0
  6 24  1  0  0  0
  6 37  1  0  0  0
  7  8  1  0  0  0
  7 14  1  0  0  0
  8 23  1  0  0  0
  9 26  1  0  0  0
 10 11  2  0  0  0
 10 29  1  0  0  0
 11 28  1  0  0  0
 12 13  2  0  0  0
 12 30  1  0  0  0
 13 31  1  0  0  0
 14 24  2  0  0  0
 14 26  1  0  0  0
 15 17  1  0  0  0
 15 25  1  0  0  0
 15 38  1  0  0  0
 15 39  1  0  0  0
 16 18  1  0  0  0
 16 25  1  0  0  0
 16 40  1  0  0  0
 16 41  1  0  0  0
 17 27  1  0  0  0
 17 42  1  0  0  0
 17 43  1  0  0  0
 18 27  1  0  0  0
 18 44  1  0  0  0
 18 45  1  0  0  0
 19 28  1  0  0  0
 19 46  1  0  0  0
 19 47  1  0  0  0
 19 48  1  0  0  0
 20 21  1  0  0  0
 20 22  1  0  0  0
 20 49  1  0  0  0
 20 50  1  0  0  0
 21 25  1  0  0  0
 21 51  1  0  0  0
 21 52  1  0  0  0
 22 29  1  0  0  0
 22 53  1  0  0  0
 22 54  1  0  0  0
 26 55  1  0  0  0
M  END
> <s_m_entry_id>
35

> <s_m_entry_name>
cAbl-gefitinib_nowat-posed-Gefitinib.1

> <s_m_Source_Path>
/Users/albaness/github/kinase-resistance-mutants/sensitivity-analysis/yank/input

> <s_m_Source_File>
cAbl-gefitinib_nowat-posed-Gefitinib.mol2

> <i_m_Source_File_Index>
1

$$$$
4-[(4-methylpiperazin-1-yl)methyl]-~{N}-[4-methyl-3-[[4-(3-pyridyl)pyrimidin-2-yl]amino]phenyl]benzamide
                    3D
 Structure written by MMmdl.
 68 72  0  0  1  0            999 V2000
  -39.5458   -8.7144  -59.3447 C   0  0  0  0  0  0
  -40.1392   -9.1705  -58.1729 C   0  0  0  0  0  0
  -42.0857  -14.7403  -63.9915 C   0  0  0  0  0  0
  -44.1367  -13.7333  -63.2064 C   0  0  0  0  0  0
  -42.2570  -14.1233  -65.2306 C   0  0  0  0  0  0
  -44.3080  -13.1162  -64.4456 C   0  0  0  0  0  0
  -43.2960  -16.5564  -57.5041 C   0  0  0  0  0  0
  -43.3224  -16.2107  -58.8551 C   0  0  0  0  0  0
  -42.2657   -9.3050  -55.9091 C   0  0  0  0  0  0
  -43.4760  -13.8755  -58.2546 C   0  0  0  0  0  0
  -40.2946   -8.7565  -60.5097 C   0  0  0  0  0  0
  -42.8924   -9.8812  -54.8231 C   0  0  0  0  0  0
  -42.1086   -9.6480  -59.4176 C   0  0  0  0  0  0
  -41.4447   -9.6479  -58.2015 C   0  0  0  0  0  0
  -43.0256  -14.5454  -62.9794 C   0  0  0  0  0  0
  -43.3682  -13.3112  -65.4577 C   0  0  0  0  0  0
  -43.3597  -15.5617  -56.5283 C   0  0  0  0  0  0
  -43.4124  -14.8703  -59.2304 C   0  0  0  0  0  0
  -43.4496  -14.2213  -56.9035 C   0  0  0  0  0  0
  -42.0879  -10.1285  -57.0021 C   0  0  0  0  0  0
  -43.0859  -11.8617  -55.9218 C   0  0  0  0  0  0
  -42.8477  -15.1879  -61.6868 C   0  0  0  0  0  0
  -42.3002   -9.1037  -66.4313 C   0  0  0  0  0  0
  -44.3503   -9.0716  -67.7009 C   0  0  0  0  0  0
  -42.2496  -10.6307  -66.5520 C   0  0  0  0  0  0
  -44.2986  -10.5985  -67.8225 C   0  0  0  0  0  0
  -43.3292  -15.9603  -55.0887 C   0  0  0  0  0  0
  -43.0498   -7.0552  -67.4594 C   0  0  0  0  0  0
  -43.5515  -12.6463  -66.7913 C   0  0  0  0  0  0
  -41.5653   -9.2131  -60.5767 N   0  0  0  0  0  0
  -43.3171  -11.1615  -54.7950 N   0  0  0  0  0  0
  -42.4870  -11.4167  -57.0429 N   0  0  0  0  0  0
  -42.9990   -8.5110  -67.5782 N   0  0  0  0  0  0
  -43.6013  -11.1903  -66.6743 N   0  0  0  0  0  0
  -43.5159  -13.2015  -55.9286 N   0  0  0  0  0  0
  -43.4397  -14.5196  -60.6038 N   0  0  0  0  0  0
  -42.1891  -16.2298  -61.5626 O   0  0  0  0  0  0
  -38.5297   -8.3370  -59.3467 H   0  0  0  0  0  0
  -39.5725   -9.1480  -57.2453 H   0  0  0  0  0  0
  -41.2164  -15.3711  -63.8247 H   0  0  0  0  0  0
  -44.8755  -13.5743  -62.4252 H   0  0  0  0  0  0
  -41.5197  -14.2804  -66.0133 H   0  0  0  0  0  0
  -45.1766  -12.4847  -64.6136 H   0  0  0  0  0  0
  -43.2253  -17.6035  -57.2217 H   0  0  0  0  0  0
  -43.2719  -16.9939  -59.6074 H   0  0  0  0  0  0
  -41.9400   -8.2724  -55.8901 H   0  0  0  0  0  0
  -43.5466  -12.8300  -58.5477 H   0  0  0  0  0  0
  -39.8772   -8.4125  -61.4507 H   0  0  0  0  0  0
  -43.0759   -9.3121  -53.9180 H   0  0  0  0  0  0
  -43.1300  -10.0068  -59.5072 H   0  0  0  0  0  0
  -42.7886   -8.8242  -65.4877 H   0  0  0  0  0  0
  -41.2710   -8.7269  -66.3894 H   0  0  0  0  0  0
  -44.8375   -8.6708  -68.5981 H   0  0  0  0  0  0
  -44.9710   -8.7906  -66.8392 H   0  0  0  0  0  0
  -41.6292  -10.9125  -67.4137 H   0  0  0  0  0  0
  -41.7625  -11.0313  -65.6547 H   0  0  0  0  0  0
  -45.3276  -10.9756  -67.8655 H   0  0  0  0  0  0
  -43.8088  -10.8776  -68.7653 H   0  0  0  0  0  0
  -42.2955  -15.9931  -54.7260 H   0  0  0  0  0  0
  -43.8950  -15.2531  -54.4701 H   0  0  0  0  0  0
  -43.7834  -16.9479  -54.9418 H   0  0  0  0  0  0
  -43.5721   -6.6261  -68.3185 H   0  0  0  0  0  0
  -42.0376   -6.6435  -67.4213 H   0  0  0  0  0  0
  -43.5792   -6.7686  -66.5467 H   0  0  0  0  0  0
  -42.7281  -12.9025  -67.4669 H   0  0  0  0  0  0
  -44.4796  -12.9756  -67.2702 H   0  0  0  0  0  0
  -43.9606  -13.4956  -55.0650 H   0  0  0  0  0  0
  -43.9553  -13.6739  -60.8343 H   0  0  0  0  0  0
  1  2  2  0  0  0
  1 11  1  0  0  0
  1 38  1  0  0  0
  2 14  1  0  0  0
  2 39  1  0  0  0
  3  5  2  0  0  0
  3 15  1  0  0  0
  3 40  1  0  0  0
  4  6  1  0  0  0
  4 15  2  0  0  0
  4 41  1  0  0  0
  5 16  1  0  0  0
  5 42  1  0  0  0
  6 16  2  0  0  0
  6 43  1  0  0  0
  7  8  2  0  0  0
  7 17  1  0  0  0
  7 44  1  0  0  0
  8 18  1  0  0  0
  8 45  1  0  0  0
  9 12  2  0  0  0
  9 20  1  0  0  0
  9 46  1  0  0  0
 10 18  2  0  0  0
 10 19  1  0  0  0
 10 47  1  0  0  0
 11 30  2  0  0  0
 11 48  1  0  0  0
 12 31  1  0  0  0
 12 49  1  0  0  0
 13 14  2  0  0  0
 13 30  1  0  0  0
 13 50  1  0  0  0
 14 20  1  0  0  0
 15 22  1  0  0  0
 16 29  1  0  0  0
 17 19  2  0  0  0
 17 27  1  0  0  0
 18 36  1  0  0  0
 19 35  1  0  0  0
 20 32  2  0  0  0
 21 31  2  0  0  0
 21 32  1  0  0  0
 21 35  1  0  0  0
 22 36  1  0  0  0
 22 37  2  0  0  0
 23 25  1  0  0  0
 23 33  1  0  0  0
 23 51  1  0  0  0
 23 52  1  0  0  0
 24 26  1  0  0  0
 24 33  1  0  0  0
 24 53  1  0  0  0
 24 54  1  0  0  0
 25 34  1  0  0  0
 25 55  1  0  0  0
 25 56  1  0  0  0
 26 34  1  0  0  0
 26 57  1  0  0  0
 26 58  1  0  0  0
 27 59  1  0  0  0
 27 60  1  0  0  0
 27 61  1  0  0  0
 28 33  1  0  0  0
 28 62  1  0  0  0
 28 63  1  0  0  0
 28 64  1  0  0  0
 29 34  1  0  0  0
 29 65  1  0  0  0
 29 66  1  0  0  0
 35 67  1  0  0  0
 36 68  1  0  0  0
M  END
> <s_m_entry_id>
36

> <s_m_entry_name>
cAbl-gefitinib_nowat-posed-Imatinib.1

> <s_m_Source_Path>
/Users/albaness/github/kinase-resistance-mutants/sensitivity-analysis/yank/input

> <s_m_Source_File>
cAbl-gefitinib_nowat-posed-Imatinib.mol2

> <i_m_Source_File_Index>
1

$$$$
4-methyl-~{N}-[3-(4-methylimidazol-1-yl)-5-(trifluoromethyl)phenyl]-3-[[4-(3-pyridyl)pyrimidin-2-yl]amino]benzamide
                    3D
 Structure written by MMmdl.
 61 65  0  0  1  0            999 V2000
  -39.6147   -9.0029  -59.1340 C   0  0  0  0  0  0
  -40.2035   -9.3446  -57.9217 C   0  0  0  0  0  0
  -43.1720  -16.5110  -57.8359 C   0  0  0  0  0  0
  -43.1460  -16.7047  -56.4548 C   0  0  0  0  0  0
  -42.3431   -9.2932  -55.6669 C   0  0  0  0  0  0
  -43.3977  -14.1295  -57.4977 C   0  0  0  0  0  0
  -44.7056  -12.5549  -64.1591 C   0  0  0  0  0  0
  -44.3540  -14.3572  -62.5890 C   0  0  0  0  0  0
  -44.3721  -12.0682  -61.8162 C   0  0  0  0  0  0
  -40.3526   -9.1962  -60.2907 C   0  0  0  0  0  0
  -42.9610   -9.7648  -54.5266 C   0  0  0  0  0  0
  -42.1479  -10.0167  -59.1151 C   0  0  0  0  0  0
  -44.6419   -9.2638  -62.4713 C   0  0  0  0  0  0
  -44.9447   -9.7099  -64.6081 C   0  0  0  0  0  0
  -41.4940   -9.8620  -57.9033 C   0  0  0  0  0  0
  -43.2978  -15.2234  -58.3574 C   0  0  0  0  0  0
  -43.2460  -15.6107  -55.5951 C   0  0  0  0  0  0
  -44.5823  -13.9186  -63.8933 C   0  0  0  0  0  0
  -44.6005  -11.6297  -63.1205 C   0  0  0  0  0  0
  -43.3718  -14.3231  -56.1166 C   0  0  0  0  0  0
  -44.2488  -13.4319  -61.5504 C   0  0  0  0  0  0
  -42.1321  -10.2266  -56.6611 C   0  0  0  0  0  0
  -44.8238   -8.1147  -63.2041 C   0  0  0  0  0  0
  -43.0865  -11.8596  -55.4004 C   0  0  0  0  0  0
  -43.3253  -15.0218  -59.7974 C   0  0  0  0  0  0
  -43.2188  -15.8478  -54.1201 C   0  0  0  0  0  0
  -44.8315   -6.7233  -62.7274 C   0  0  0  0  0  0
  -44.6954  -14.9080  -65.0035 C   0  0  0  0  0  0
  -41.6085   -9.6961  -60.3126 N   0  0  0  0  0  0
  -43.3475  -11.0465  -54.3590 N   0  0  0  0  0  0
  -45.0121   -8.3992  -64.5334 N   0  0  0  0  0  0
  -42.4922  -11.5230  -56.5610 N   0  0  0  0  0  0
  -44.7224  -10.2774  -63.3842 N   0  0  0  0  0  0
  -43.4763  -13.2044  -55.2609 N   0  0  0  0  0  0
  -44.0172  -13.8778  -60.2248 N   0  0  0  0  0  0
  -42.8018  -15.8287  -60.5781 O   0  0  0  0  0  0
  -44.9195  -14.3378  -66.2244 F   0  0  0  0  0  0
  -43.5771  -15.6747  -65.1687 F   0  0  0  0  0  0
  -45.7201  -15.7904  -64.8182 F   0  0  0  0  0  0
  -38.6104   -8.5971  -59.1731 H   0  0  0  0  0  0
  -39.6452   -9.2025  -56.9997 H   0  0  0  0  0  0
  -43.0931  -17.3705  -58.4966 H   0  0  0  0  0  0
  -43.0466  -17.7119  -56.0587 H   0  0  0  0  0  0
  -42.0485   -8.2553  -55.7606 H   0  0  0  0  0  0
  -43.4974  -13.1254  -57.9048 H   0  0  0  0  0  0
  -44.8836  -12.2175  -65.1781 H   0  0  0  0  0  0
  -44.2591  -15.4211  -62.3839 H   0  0  0  0  0  0
  -44.2893  -11.3482  -61.0044 H   0  0  0  0  0  0
  -39.9382   -8.9457  -61.2620 H   0  0  0  0  0  0
  -43.1687   -9.1051  -53.6909 H   0  0  0  0  0  0
  -43.1574  -10.4142  -59.1691 H   0  0  0  0  0  0
  -44.4701   -9.4376  -61.4173 H   0  0  0  0  0  0
  -45.0497  -10.2939  -65.5131 H   0  0  0  0  0  0
  -42.1882  -15.8117  -53.7492 H   0  0  0  0  0  0
  -43.8094  -15.0928  -53.5871 H   0  0  0  0  0  0
  -43.6476  -16.8255  -53.8686 H   0  0  0  0  0  0
  -43.8193   -6.2828  -62.7551 H   0  0  0  0  0  0
  -45.4905   -6.0760  -63.3345 H   0  0  0  0  0  0
  -45.2010   -6.6382  -61.6890 H   0  0  0  0  0  0
  -43.9189  -13.4147  -54.3720 H   0  0  0  0  0  0
  -44.4024  -13.2927  -59.4876 H   0  0  0  0  0  0
  1  2  2  0  0  0
  1 10  1  0  0  0
  1 40  1  0  0  0
  2 15  1  0  0  0
  2 41  1  0  0  0
  3  4  2  0  0  0
  3 16  1  0  0  0
  3 42  1  0  0  0
  4 17  1  0  0  0
  4 43  1  0  0  0
  5 11  2  0  0  0
  5 22  1  0  0  0
  5 44  1  0  0  0
  6 16  2  0  0  0
  6 20  1  0  0  0
  6 45  1  0  0  0
  7 18  2  0  0  0
  7 19  1  0  0  0
  7 46  1  0  0  0
  8 18  1  0  0  0
  8 21  2  0  0  0
  8 47  1  0  0  0
  9 19  2  0  0  0
  9 21  1  0  0  0
  9 48  1  0  0  0
 10 29  2  0  0  0
 10 49  1  0  0  0
 11 30  1  0  0  0
 11 50  1  0  0  0
 12 15  2  0  0  0
 12 29  1  0  0  0
 12 51  1  0  0  0
 13 23  2  0  0  0
 13 33  1  0  0  0
 13 52  1  0  0  0
 14 31  2  0  0  0
 14 33  1  0  0  0
 14 53  1  0  0  0
 15 22  1  0  0  0
 16 25  1  0  0  0
 17 20  2  0  0  0
 17 26  1  0  0  0
 18 28  1  0  0  0
 19 33  1  0  0  0
 20 34  1  0  0  0
 21 35  1  0  0  0
 22 32  2  0  0  0
 23 27  1  0  0  0
 23 31  1  0  0  0
 24 30  2  0  0  0
 24 32  1  0  0  0
 24 34  1  0  0  0
 25 35  1  0  0  0
 25 36  2  0  0  0
 26 54  1  0  0  0
 26 55  1  0  0  0
 26 56  1  0  0  0
 27 57  1  0  0  0
 27 58  1  0  0  0
 27 59  1  0  0  0
 28 37  1  0  0  0
 28 38  1  0  0  0
 28 39  1  0  0  0
 34 60  1  0  0  0
 35 61  1  0  0  0
M  END
> <s_m_entry_id>
37

> <s_m_entry_name>
cAbl-gefitinib_nowat-posed-Nilotinib.1

> <s_m_Source_Path>
/Users/albaness/github/kinase-resistance-mutants/sensitivity-analysis/yank/input

> <s_m_Source_File>
cAbl-gefitinib_nowat-posed-Nilotinib.mol2

> <i_m_Source_File_Index>
1

$$$$
3-(2-imidazo[1,2-b]pyridazin-3-ylethynyl)-4-methyl-~{N}-[4-[(4-methylpiperazin-1-yl)methyl]-3-(trifluoromethyl)phenyl]benzamide
                    3D
 Structure written by MMmdl.
 66 70  0  0  1  0            999 V2000
  -41.0689   -8.9290  -61.1341 C   0  0  0  0  0  0
  -40.7489   -7.9965  -60.4476 C   0  0  0  0  0  0
  -42.1912  -12.2359  -63.5049 C   0  0  0  0  0  0
  -42.0867  -10.9729  -64.0876 C   0  0  0  0  0  0
  -42.4319  -17.2160  -58.9258 C   0  0  0  0  0  0
  -42.3001  -16.1246  -59.7843 C   0  0  0  0  0  0
  -41.5545  -11.3032  -61.3691 C   0  0  0  0  0  0
  -42.7778  -14.6250  -57.9513 C   0  0  0  0  0  0
  -39.1033   -6.4342  -59.3382 C   0  0  0  0  0  0
  -41.4500  -10.0402  -61.9518 C   0  0  0  0  0  0
  -40.3679   -6.8863  -59.6301 C   0  0  0  0  0  0
  -41.9251  -12.4010  -62.1456 C   0  0  0  0  0  0
  -41.7161   -9.8751  -63.3111 C   0  0  0  0  0  0
  -42.7367  -17.0119  -57.5800 C   0  0  0  0  0  0
  -42.9096  -15.7164  -57.0927 C   0  0  0  0  0  0
  -42.4731  -14.8291  -59.2971 C   0  0  0  0  0  0
  -40.4267   -5.1155  -58.2999 C   0  0  0  0  0  0
  -41.0927   -4.1294  -57.5350 C   0  0  0  0  0  0
  -42.4297   -4.1260  -57.4828 C   0  0  0  0  0  0
  -43.1318   -5.1831  -58.2493 C   0  0  0  0  0  0
  -42.0364  -13.7353  -61.5317 C   0  0  0  0  0  0
  -43.9607  -20.8740  -55.4565 C   0  0  0  0  0  0
  -45.6990  -19.5371  -56.4708 C   0  0  0  0  0  0
  -43.0621  -20.6254  -56.6743 C   0  0  0  0  0  0
  -44.7972  -19.2911  -57.6868 C   0  0  0  0  0  0
  -41.6134   -8.5367  -63.9697 C   0  0  0  0  0  0
  -46.2342  -21.0509  -54.6716 C   0  0  0  0  0  0
  -42.8742  -18.2023  -56.6754 C   0  0  0  0  0  0
  -43.2342  -15.4736  -55.6553 C   0  0  0  0  0  0
  -39.1459   -5.3383  -58.5146 N   0  0  0  0  0  0
  -42.5755   -6.1100  -58.9653 N   0  0  0  0  0  0
  -41.2145   -6.0401  -58.9638 N   0  0  0  0  0  0
  -45.3781  -20.8194  -55.8333 N   0  0  0  0  0  0
  -43.3618  -19.3795  -57.3911 N   0  0  0  0  0  0
  -42.3395  -13.7371  -60.1550 N   0  0  0  0  0  0
  -41.8396  -14.7536  -62.1914 O   0  0  0  0  0  0
  -43.3687  -14.1517  -55.3422 F   0  0  0  0  0  0
  -44.4016  -16.0568  -55.2545 F   0  0  0  0  0  0
  -42.2746  -15.9551  -54.8138 F   0  0  0  0  0  0
  -42.4820  -13.0839  -64.1199 H   0  0  0  0  0  0
  -42.2963  -10.8555  -65.1476 H   0  0  0  0  0  0
  -42.2962  -18.2217  -59.3152 H   0  0  0  0  0  0
  -42.0635  -16.2962  -60.8312 H   0  0  0  0  0  0
  -41.3486  -11.4382  -60.3087 H   0  0  0  0  0  0
  -42.9129  -13.6149  -57.5703 H   0  0  0  0  0  0
  -38.1599   -6.8383  -59.6777 H   0  0  0  0  0  0
  -40.5138   -3.3858  -56.9988 H   0  0  0  0  0  0
  -43.0037   -3.4031  -56.9195 H   0  0  0  0  0  0
  -44.2316   -5.1520  -58.1840 H   0  0  0  0  0  0
  -43.7114  -21.8446  -55.0069 H   0  0  0  0  0  0
  -43.7460  -20.1026  -54.7072 H   0  0  0  0  0  0
  -45.5444  -18.7190  -55.7569 H   0  0  0  0  0  0
  -46.7523  -19.5055  -56.7807 H   0  0  0  0  0  0
  -41.9973  -20.6430  -56.3537 H   0  0  0  0  0  0
  -43.1769  -21.4852  -57.3662 H   0  0  0  0  0  0
  -45.0597  -20.0378  -58.4645 H   0  0  0  0  0  0
  -45.0427  -18.3015  -58.1311 H   0  0  0  0  0  0
  -42.5763   -8.0165  -63.9212 H   0  0  0  0  0  0
  -40.8533   -7.9145  -63.4828 H   0  0  0  0  0  0
  -41.3206   -8.6361  -65.0217 H   0  0  0  0  0  0
  -47.2861  -21.0076  -54.9656 H   0  0  0  0  0  0
  -46.0503  -20.2894  -53.9089 H   0  0  0  0  0  0
  -46.0292  -22.0348  -54.2411 H   0  0  0  0  0  0
  -41.9093  -18.4577  -56.2240 H   0  0  0  0  0  0
  -43.5716  -17.9954  -55.8569 H   0  0  0  0  0  0
  -42.4803  -12.8143  -59.7280 H   0  0  0  0  0  0
  1  2  3  0  0  0
  1 10  1  0  0  0
  2 11  1  0  0  0
  3  4  2  0  0  0
  3 12  1  0  0  0
  3 40  1  0  0  0
  4 13  1  0  0  0
  4 41  1  0  0  0
  5  6  2  0  0  0
  5 14  1  0  0  0
  5 42  1  0  0  0
  6 16  1  0  0  0
  6 43  1  0  0  0
  7 10  1  0  0  0
  7 12  2  0  0  0
  7 44  1  0  0  0
  8 15  1  0  0  0
  8 16  2  0  0  0
  8 45  1  0  0  0
  9 11  2  0  0  0
  9 30  1  0  0  0
  9 46  1  0  0  0
 10 13  2  0  0  0
 11 32  1  0  0  0
 12 21  1  0  0  0
 13 26  1  0  0  0
 14 15  2  0  0  0
 14 28  1  0  0  0
 15 29  1  0  0  0
 16 35  1  0  0  0
 17 18  1  0  0  0
 17 30  2  0  0  0
 17 32  1  0  0  0
 18 19  2  0  0  0
 18 47  1  0  0  0
 19 20  1  0  0  0
 19 48  1  0  0  0
 20 31  2  0  0  0
 20 49  1  0  0  0
 21 35  1  0  0  0
 21 36  2  0  0  0
 22 24  1  0  0  0
 22 33  1  0  0  0
 22 50  1  0  0  0
 22 51  1  0  0  0
 23 25  1  0  0  0
 23 33  1  0  0  0
 23 52  1  0  0  0
 23 53  1  0  0  0
 24 34  1  0  0  0
 24 54  1  0  0  0
 24 55  1  0  0  0
 25 34  1  0  0  0
 25 56  1  0  0  0
 25 57  1  0  0  0
 26 58  1  0  0  0
 26 59  1  0  0  0
 26 60  1  0  0  0
 27 33  1  0  0  0
 27 61  1  0  0  0
 27 62  1  0  0  0
 27 63  1  0  0  0
 28 34  1  0  0  0
 28 64  1  0  0  0
 28 65  1  0  0  0
 29 37  1  0  0  0
 29 38  1  0  0  0
 29 39  1  0  0  0
 31 32  1  0  0  0
 35 66  1  0  0  0
M  END
> <s_m_entry_id>
38

> <s_m_entry_name>
cAbl-gefitinib_nowat-posed-Ponatinib.1

> <s_m_Source_Path>
/Users/albaness/github/kinase-resistance-mutants/sensitivity-analysis/yank/input

> <s_m_Source_File>
cAbl-gefitinib_nowat-posed-Ponatinib.mol2

> <i_m_Source_File_Index>
1

$$$$
