~{N}-methyl-2-[[3-[(~{E})-2-(2-pyridyl)vinyl]-1~{H}-indazol-6-yl]sulfanyl]benzamide
                    3D
 Structure written by MMmdl.
 46 49  0  0  1  0            999 V2000
  -38.1294   -6.4521  -56.5437 C   0  0  0  0  0  0
  -37.8848   -7.7904  -56.8514 C   0  0  0  0  0  0
  -43.0476  -18.7259  -57.7969 C   0  0  0  0  0  0
  -44.0606  -19.1386  -56.9385 C   0  0  0  0  0  0
  -42.1859  -12.2898  -58.3072 C   0  0  0  0  0  0
  -39.1878   -5.7784  -57.1534 C   0  0  0  0  0  0
  -38.6986   -8.4551  -57.7688 C   0  0  0  0  0  0
  -41.6922  -11.2364  -59.0870 C   0  0  0  0  0  0
  -42.6099  -17.4066  -57.7630 C   0  0  0  0  0  0
  -41.5795   -9.7681  -57.1480 C   0  0  0  0  0  0
  -44.5987  -18.2008  -56.0721 C   0  0  0  0  0  0
  -42.3770  -12.0745  -56.9321 C   0  0  0  0  0  0
  -40.0015   -6.4431  -58.0709 C   0  0  0  0  0  0
  -42.0728  -10.8313  -56.3886 C   0  0  0  0  0  0
  -41.3948   -9.9978  -58.5154 C   0  0  0  0  0  0
  -39.7569   -7.7814  -58.3786 C   0  0  0  0  0  0
  -43.2131  -16.5462  -56.8598 C   0  0  0  0  0  0
  -42.8348  -12.8338  -55.8339 C   0  0  0  0  0  0
  -42.7840  -15.1384  -56.7852 C   0  0  0  0  0  0
  -43.2617  -14.1850  -55.9180 C   0  0  0  0  0  0
  -41.0932   -5.6900  -58.6782 C   0  0  0  0  0  0
  -43.2074   -4.4159  -58.2616 C   0  0  0  0  0  0
  -44.1997  -16.9107  -56.0104 N   0  0  0  0  0  0
  -42.8274  -12.1467  -54.6895 N   0  0  0  0  0  0
  -42.3624  -10.9405  -55.0552 N   0  0  0  0  0  0
  -42.0555   -5.1639  -57.8116 N   0  0  0  0  0  0
  -41.1522   -5.5554  -59.9110 O   0  0  0  0  0  0
  -40.7668   -8.6806  -59.5455 S   0  0  0  0  0  0
  -37.4949   -5.9343  -55.8302 H   0  0  0  0  0  0
  -37.0601   -8.3145  -56.3773 H   0  0  0  0  0  0
  -42.5996  -19.4318  -58.4898 H   0  0  0  0  0  0
  -44.4177  -20.1620  -56.9482 H   0  0  0  0  0  0
  -42.4125  -13.2473  -58.7665 H   0  0  0  0  0  0
  -39.3670   -4.7350  -56.9051 H   0  0  0  0  0  0
  -38.4887   -9.4977  -57.9948 H   0  0  0  0  0  0
  -41.5454  -11.4065  -60.1517 H   0  0  0  0  0  0
  -41.8195  -17.0772  -58.4300 H   0  0  0  0  0  0
  -41.3539   -8.8123  -56.6863 H   0  0  0  0  0  0
  -45.3922  -18.4716  -55.3833 H   0  0  0  0  0  0
  -41.9896  -14.8622  -57.4743 H   0  0  0  0  0  0
  -44.0370  -14.5254  -55.1981 H   0  0  0  0  0  0
  -42.9914   -3.3446  -58.2403 H   0  0  0  0  0  0
  -44.0645   -4.6151  -57.6126 H   0  0  0  0  0  0
  -43.4681   -4.7021  -59.2841 H   0  0  0  0  0  0
  -42.2652  -10.2294  -54.3413 H   0  0  0  0  0  0
  -41.9910   -5.3585  -56.8178 H   0  0  0  0  0  0
  1  2  2  0  0  0
  1  6  1  0  0  0
  1 29  1  0  0  0
  2  7  1  0  0  0
  2 30  1  0  0  0
  3  4  2  0  0  0
  3  9  1  0  0  0
  3 31  1  0  0  0
  4 11  1  0  0  0
  4 32  1  0  0  0
  5  8  2  0  0  0
  5 12  1  0  0  0
  5 33  1  0  0  0
  6 13  2  0  0  0
  6 34  1  0  0  0
  7 16  2  0  0  0
  7 35  1  0  0  0
  8 15  1  0  0  0
  8 36  1  0  0  0
  9 17  2  0  0  0
  9 37  1  0  0  0
 10 14  1  0  0  0
 10 15  2  0  0  0
 10 38  1  0  0  0
 11 23  2  0  0  0
 11 39  1  0  0  0
 12 14  2  0  0  0
 12 18  1  0  0  0
 13 16  1  0  0  0
 13 21  1  0  0  0
 14 25  1  0  0  0
 15 28  1  0  0  0
 16 28  1  0  0  0
 17 19  1  0  0  0
 17 23  1  0  0  0
 18 20  1  0  0  0
 18 24  2  0  0  0
 19 20  2  0  0  0
 19 40  1  0  0  0
 20 41  1  0  0  0
 21 26  1  0  0  0
 21 27  2  0  0  0
 22 26  1  0  0  0
 22 42  1  0  0  0
 22 43  1  0  0  0
 22 44  1  0  0  0
 24 25  1  0  0  0
 25 45  1  0  0  0
 26 46  1  0  0  0
M  END
> <s_m_entry_id>
39

> <s_m_entry_name>
cAbl-imatinib_nowat-posed-Axitinib.1

> <s_m_Source_Path>
/Users/albaness/github/kinase-resistance-mutants/sensitivity-analysis/yank/input

> <s_m_Source_File>
cAbl-imatinib_nowat-posed-Axitinib.mol2

> <i_m_Source_File_Index>
1

$$$$
4-(2,4-dichloro-5-methoxy-anilino)-6-methoxy-7-[3-(4-methylpiperazin-1-yl)propoxy]quinoline-3-carbonitrile
                    3D
 Structure written by MMmdl.
 65 68  0  0  1  0            999 V2000
  -37.8260   -7.9384  -56.3514 C   0  0  0  0  0  0
  -41.9234   -5.7166  -57.9310 C   0  0  0  0  0  0
  -40.3669   -3.5433  -58.6764 C   0  0  0  0  0  0
  -40.6023   -9.3302  -58.7302 C   0  0  0  0  0  0
  -42.1171  -11.3079  -57.4745 C   0  0  0  0  0  0
  -37.8304   -5.7182  -57.3411 C   0  0  0  0  0  0
  -38.5267   -6.8405  -56.9409 C   0  0  0  0  0  0
  -40.5343   -5.7416  -57.7199 C   0  0  0  0  0  0
  -39.7367   -4.6406  -58.0961 C   0  0  0  0  0  0
  -41.0135   -9.1597  -57.4083 C   0  0  0  0  0  0
  -39.9004   -6.8466  -57.1359 C   0  0  0  0  0  0
  -42.5275   -4.6060  -58.5132 C   0  0  0  0  0  0
  -41.7479   -3.5182  -58.8863 C   0  0  0  0  0  0
  -40.9485  -10.4895  -59.4243 C   0  0  0  0  0  0
  -41.7709  -10.1485  -56.7804 C   0  0  0  0  0  0
  -41.7059  -11.4783  -58.7965 C   0  0  0  0  0  0
  -45.6430    3.1334  -60.8087 C   0  0  0  0  0  0
  -46.4833    1.5230  -62.3950 C   0  0  0  0  0  0
  -44.4252    2.2403  -60.5475 C   0  0  0  0  0  0
  -45.2647    0.6309  -62.1345 C   0  0  0  0  0  0
  -47.3178    3.7855  -62.4165 C   0  0  0  0  0  0
  -44.6820   -4.0801  -57.6546 C   0  0  0  0  0  0
  -39.2696  -11.2563  -60.9239 C   0  0  0  0  0  0
  -43.3838   -0.3087  -59.0431 C   0  0  0  0  0  0
  -43.5928   -0.0229  -60.5243 C   0  0  0  0  0  0
  -42.1616   -1.1788  -58.7760 C   0  0  0  0  0  0
  -37.2572   -8.8296  -55.8729 N   0  0  0  0  0  0
  -38.4034   -4.6319  -57.9081 N   0  0  0  0  0  0
  -46.1541    2.9360  -62.1706 N   0  0  0  0  0  0
  -44.7554    0.8276  -60.7718 N   0  0  0  0  0  0
  -40.6499   -7.9832  -56.7365 N   0  0  0  0  0  0
  -43.8744   -4.5973  -58.7108 O   0  0  0  0  0  0
  -40.5331  -10.6296  -60.7151 O   0  0  0  0  0  0
  -42.3208   -2.4139  -59.4614 O   0  0  0  0  0  0
  -42.3005   -9.9771  -55.1450 Cl  0  0  0  0  0  0
  -42.1479  -12.9217  -59.6316 Cl  0  0  0  0  0  0
  -42.5541   -6.5563  -57.6469 H   0  0  0  0  0  0
  -39.7723   -2.6810  -58.9753 H   0  0  0  0  0  0
  -40.0115   -8.5621  -59.2243 H   0  0  0  0  0  0
  -42.7079  -12.0797  -56.9855 H   0  0  0  0  0  0
  -36.7533   -5.6425  -57.2204 H   0  0  0  0  0  0
  -46.4219    2.9222  -60.0634 H   0  0  0  0  0  0
  -45.3389    4.1787  -60.6749 H   0  0  0  0  0  0
  -46.8010    1.3773  -63.4346 H   0  0  0  0  0  0
  -47.3161    1.2076  -61.7519 H   0  0  0  0  0  0
  -43.5919    2.5550  -61.1905 H   0  0  0  0  0  0
  -44.1076    2.3860  -59.5078 H   0  0  0  0  0  0
  -45.5681   -0.4145  -62.2692 H   0  0  0  0  0  0
  -44.4853    0.8434  -62.8790 H   0  0  0  0  0  0
  -47.6887    3.6295  -63.4329 H   0  0  0  0  0  0
  -47.0488    4.8386  -62.2979 H   0  0  0  0  0  0
  -48.1167    3.5460  -61.7097 H   0  0  0  0  0  0
  -45.7351   -4.1311  -57.9417 H   0  0  0  0  0  0
  -44.3984   -3.0443  -57.4516 H   0  0  0  0  0  0
  -44.5218   -4.6822  -56.7571 H   0  0  0  0  0  0
  -39.0587  -11.3050  -61.9950 H   0  0  0  0  0  0
  -39.2865  -12.2631  -60.4989 H   0  0  0  0  0  0
  -38.4943  -10.6669  -60.4287 H   0  0  0  0  0  0
  -43.2693    0.6399  -58.5038 H   0  0  0  0  0  0
  -44.2729   -0.7904  -58.6167 H   0  0  0  0  0  0
  -42.7225    0.5000  -60.9329 H   0  0  0  0  0  0
  -43.7306   -0.9507  -61.0886 H   0  0  0  0  0  0
  -41.2465   -0.6997  -59.1377 H   0  0  0  0  0  0
  -42.0569   -1.3862  -57.7063 H   0  0  0  0  0  0
  -40.9817   -7.9263  -55.7817 H   0  0  0  0  0  0
  1  7  1  0  0  0
  1 27  3  0  0  0
  2  8  2  0  0  0
  2 12  1  0  0  0
  2 37  1  0  0  0
  3  9  2  0  0  0
  3 13  1  0  0  0
  3 38  1  0  0  0
  4 10  2  0  0  0
  4 14  1  0  0  0
  4 39  1  0  0  0
  5 15  2  0  0  0
  5 16  1  0  0  0
  5 40  1  0  0  0
  6  7  1  0  0  0
  6 28  2  0  0  0
  6 41  1  0  0  0
  7 11  2  0  0  0
  8  9  1  0  0  0
  8 11  1  0  0  0
  9 28  1  0  0  0
 10 15  1  0  0  0
 10 31  1  0  0  0
 11 31  1  0  0  0
 12 13  2  0  0  0
 12 32  1  0  0  0
 13 34  1  0  0  0
 14 16  2  0  0  0
 14 33  1  0  0  0
 15 35  1  0  0  0
 16 36  1  0  0  0
 17 19  1  0  0  0
 17 29  1  0  0  0
 17 42  1  0  0  0
 17 43  1  0  0  0
 18 20  1  0  0  0
 18 29  1  0  0  0
 18 44  1  0  0  0
 18 45  1  0  0  0
 19 30  1  0  0  0
 19 46  1  0  0  0
 19 47  1  0  0  0
 20 30  1  0  0  0
 20 48  1  0  0  0
 20 49  1  0  0  0
 21 29  1  0  0  0
 21 50  1  0  0  0
 21 51  1  0  0  0
 21 52  1  0  0  0
 22 32  1  0  0  0
 22 53  1  0  0  0
 22 54  1  0  0  0
 22 55  1  0  0  0
 23 33  1  0  0  0
 23 56  1  0  0  0
 23 57  1  0  0  0
 23 58  1  0  0  0
 24 25  1  0  0  0
 24 26  1  0  0  0
 24 59  1  0  0  0
 24 60  1  0  0  0
 25 30  1  0  0  0
 25 61  1  0  0  0
 25 62  1  0  0  0
 26 34  1  0  0  0
 26 63  1  0  0  0
 26 64  1  0  0  0
 31 65  1  0  0  0
M  END
> <s_m_entry_id>
40

> <s_m_entry_name>
cAbl-imatinib_nowat-posed-Bosutinib.1

> <s_m_Source_Path>
/Users/albaness/github/kinase-resistance-mutants/sensitivity-analysis/yank/input

> <s_m_Source_File>
cAbl-imatinib_nowat-posed-Bosutinib.mol2

> <i_m_Source_File_Index>
1

$$$$
~{N}-(2-chloro-6-methyl-phenyl)-2-[[6-[4-(2-hydroxyethyl)piperazin-1-yl]-2-methyl-pyrimidin-4-yl]amino]thiazole-5-carboxamide
                    3D
 Structure written by MMmdl.
 59 62  0  0  1  0            999 V2000
  -41.7033  -12.9084  -56.6904 C   0  0  0  0  0  0
  -42.1774  -11.9659  -55.7779 C   0  0  0  0  0  0
  -41.3729  -12.5179  -57.9881 C   0  0  0  0  0  0
  -41.8349   -0.9549  -60.4530 C   0  0  0  0  0  0
  -43.1280   -6.1127  -58.4618 C   0  0  0  0  0  0
  -42.3213  -10.6331  -56.1632 C   0  0  0  0  0  0
  -41.9910  -10.2426  -57.4610 C   0  0  0  0  0  0
  -41.5168  -11.1851  -58.3734 C   0  0  0  0  0  0
  -41.9332   -6.4837  -57.8813 C   0  0  0  0  0  0
  -42.6153    0.0092  -61.0580 C   0  0  0  0  0  0
  -42.5167   -1.8880  -59.6989 C   0  0  0  0  0  0
  -44.5056   -0.8985  -60.1807 C   0  0  0  0  0  0
  -42.0411   -4.2238  -58.7082 C   0  0  0  0  0  0
  -41.5404   -7.7236  -57.3014 C   0  0  0  0  0  0
  -42.5317    2.3206  -61.9487 C   0  0  0  0  0  0
  -41.1710    0.5178  -62.9816 C   0  0  0  0  0  0
  -41.4585    3.3226  -62.3816 C   0  0  0  0  0  0
  -40.1414    1.5778  -63.3801 C   0  0  0  0  0  0
  -42.8312   -9.6479  -55.1615 C   0  0  0  0  0  0
  -45.9887   -0.8672  -60.0294 C   0  0  0  0  0  0
  -39.8001    3.8685  -64.0404 C   0  0  0  0  0  0
  -40.5060    5.0164  -64.7388 C   0  0  0  0  0  0
  -43.1918   -4.8170  -58.9362 N   0  0  0  0  0  0
  -43.9582    0.0675  -60.9427 N   0  0  0  0  0  0
  -43.8566   -1.8896  -59.5404 N   0  0  0  0  0  0
  -41.9620    0.9747  -61.8320 N   0  0  0  0  0  0
  -40.7848    2.8777  -63.6075 N   0  0  0  0  0  0
  -42.1458   -8.8854  -57.8404 N   0  0  0  0  0  0
  -41.7524   -2.8954  -59.0607 N   0  0  0  0  0  0
  -40.7326   -7.8028  -56.3442 O   0  0  0  0  0  0
  -41.1784    4.5259  -65.8917 O   0  0  0  0  0  0
  -40.8373   -5.1653  -57.9275 S   0  0  0  0  0  0
  -41.0959  -10.7491  -59.9917 Cl  0  0  0  0  0  0
  -41.5904  -13.9460  -56.3899 H   0  0  0  0  0  0
  -42.4331  -12.2806  -54.7694 H   0  0  0  0  0  0
  -41.0069  -13.2656  -58.6874 H   0  0  0  0  0  0
  -40.7568   -0.9778  -60.5630 H   0  0  0  0  0  0
  -43.9943   -6.7528  -58.5666 H   0  0  0  0  0  0
  -42.9459    2.6407  -60.9845 H   0  0  0  0  0  0
  -43.3527    2.3148  -62.6780 H   0  0  0  0  0  0
  -41.8365    0.3065  -63.8292 H   0  0  0  0  0  0
  -40.6443   -0.4118  -62.7324 H   0  0  0  0  0  0
  -41.9437    4.2918  -62.5498 H   0  0  0  0  0  0
  -40.7329    3.4578  -61.5679 H   0  0  0  0  0  0
  -39.3740    1.6574  -62.5981 H   0  0  0  0  0  0
  -39.6402    1.2408  -64.2955 H   0  0  0  0  0  0
  -41.9965   -9.2068  -54.6054 H   0  0  0  0  0  0
  -43.3919   -8.8420  -55.6498 H   0  0  0  0  0  0
  -43.5136  -10.1264  -54.4487 H   0  0  0  0  0  0
  -46.4662   -1.4586  -60.8204 H   0  0  0  0  0  0
  -46.2990   -1.2720  -59.0573 H   0  0  0  0  0  0
  -46.3733    0.1598  -60.0828 H   0  0  0  0  0  0
  -39.0880    3.3748  -64.7092 H   0  0  0  0  0  0
  -39.2685    4.2305  -63.1552 H   0  0  0  0  0  0
  -39.7751    5.7624  -65.0658 H   0  0  0  0  0  0
  -41.2382    5.4978  -64.0823 H   0  0  0  0  0  0
  -42.7859   -8.7218  -58.6136 H   0  0  0  0  0  0
  -40.8178   -2.5924  -58.8125 H   0  0  0  0  0  0
  -41.6141    5.2877  -66.3064 H   0  0  0  0  0  0
  1  2  2  0  0  0
  1  3  1  0  0  0
  1 34  1  0  0  0
  2  6  1  0  0  0
  2 35  1  0  0  0
  3  8  2  0  0  0
  3 36  1  0  0  0
  4 10  2  0  0  0
  4 11  1  0  0  0
  4 37  1  0  0  0
  5  9  2  0  0  0
  5 23  1  0  0  0
  5 38  1  0  0  0
  6  7  2  0  0  0
  6 19  1  0  0  0
  7  8  1  0  0  0
  7 28  1  0  0  0
  8 33  1  0  0  0
  9 14  1  0  0  0
  9 32  1  0  0  0
 10 24  1  0  0  0
 10 26  1  0  0  0
 11 25  2  0  0  0
 11 29  1  0  0  0
 12 20  1  0  0  0
 12 24  2  0  0  0
 12 25  1  0  0  0
 13 23  2  0  0  0
 13 29  1  0  0  0
 13 32  1  0  0  0
 14 28  1  0  0  0
 14 30  2  0  0  0
 15 17  1  0  0  0
 15 26  1  0  0  0
 15 39  1  0  0  0
 15 40  1  0  0  0
 16 18  1  0  0  0
 16 26  1  0  0  0
 16 41  1  0  0  0
 16 42  1  0  0  0
 17 27  1  0  0  0
 17 43  1  0  0  0
 17 44  1  0  0  0
 18 27  1  0  0  0
 18 45  1  0  0  0
 18 46  1  0  0  0
 19 47  1  0  0  0
 19 48  1  0  0  0
 19 49  1  0  0  0
 20 50  1  0  0  0
 20 51  1  0  0  0
 20 52  1  0  0  0
 21 22  1  0  0  0
 21 27  1  0  0  0
 21 53  1  0  0  0
 21 54  1  0  0  0
 22 31  1  0  0  0
 22 55  1  0  0  0
 22 56  1  0  0  0
 28 57  1  0  0  0
 29 58  1  0  0  0
 31 59  1  0  0  0
M  END
> <s_m_entry_id>
41

> <s_m_entry_name>
cAbl-imatinib_nowat-posed-Dasatinib.1

> <s_m_Source_Path>
/Users/albaness/github/kinase-resistance-mutants/sensitivity-analysis/yank/input

> <s_m_Source_File>
cAbl-imatinib_nowat-posed-Dasatinib.mol2

> <i_m_Source_File_Index>
1

$$$$
~{N}-(3-ethynylphenyl)-6,7-bis(2-methoxyethoxy)quinazolin-4-amine
                    3D
 Structure written by MMmdl.
 52 54  0  0  1  0            999 V2000
  -37.6400   -6.7933  -56.8319 C   0  0  0  0  0  0
  -38.6908   -6.4332  -57.2881 C   0  0  0  0  0  0
  -42.1955   -6.5063  -58.5403 C   0  0  0  0  0  0
  -40.9746   -6.9242  -58.0108 C   0  0  0  0  0  0
  -42.3832   -5.1690  -58.8896 C   0  0  0  0  0  0
  -40.1289   -4.6673  -58.1799 C   0  0  0  0  0  0
  -41.7414   -0.7680  -60.9386 C   0  0  0  0  0  0
  -44.0420    0.7880  -60.8877 C   0  0  0  0  0  0
  -44.7220   -1.5407  -58.2475 C   0  0  0  0  0  0
  -39.9413   -6.0047  -57.8306 C   0  0  0  0  0  0
  -42.7629   -1.0379  -60.0114 C   0  0  0  0  0  0
  -43.9308   -0.2587  -59.9756 C   0  0  0  0  0  0
  -41.3499   -4.2495  -58.7094 C   0  0  0  0  0  0
  -41.8790    0.2840  -61.8387 C   0  0  0  0  0  0
  -43.0306    1.0628  -61.8129 C   0  0  0  0  0  0
  -42.6882   -2.0743  -59.0851 C   0  0  0  0  0  0
  -38.0849   -0.6586  -66.3734 C   0  0  0  0  0  0
  -46.8084    4.0914  -61.6893 C   0  0  0  0  0  0
  -40.5515   -0.5031  -63.6482 C   0  0  0  0  0  0
  -43.9697    3.2049  -62.2429 C   0  0  0  0  0  0
  -39.4492   -0.0185  -64.5701 C   0  0  0  0  0  0
  -45.1399    3.3922  -63.1893 C   0  0  0  0  0  0
  -44.9141   -0.5081  -59.0932 N   0  0  0  0  0  0
  -43.6533   -2.3515  -58.1882 N   0  0  0  0  0  0
  -41.5393   -2.9037  -59.0611 N   0  0  0  0  0  0
  -40.8859    0.5399  -62.7339 O   0  0  0  0  0  0
  -43.1864    2.0981  -62.6848 O   0  0  0  0  0  0
  -39.1017   -1.0654  -65.4683 O   0  0  0  0  0  0
  -45.9325    4.4833  -62.7370 O   0  0  0  0  0  0
  -36.7081   -7.1121  -56.4270 H   0  0  0  0  0  0
  -43.0002   -7.2222  -58.6806 H   0  0  0  0  0  0
  -40.8437   -7.9700  -57.7433 H   0  0  0  0  0  0
  -43.3387   -4.8543  -59.3014 H   0  0  0  0  0  0
  -39.3254   -3.9464  -58.0409 H   0  0  0  0  0  0
  -40.8340   -1.3664  -60.9730 H   0  0  0  0  0  0
  -44.9366    1.4089  -60.8828 H   0  0  0  0  0  0
  -45.5178   -1.7364  -57.5392 H   0  0  0  0  0  0
  -37.8435   -1.4848  -67.0466 H   0  0  0  0  0  0
  -37.1956   -0.3593  -65.8131 H   0  0  0  0  0  0
  -38.4479    0.1903  -66.9576 H   0  0  0  0  0  0
  -47.4003    4.9517  -61.3672 H   0  0  0  0  0  0
  -46.2245    3.7030  -60.8511 H   0  0  0  0  0  0
  -47.4768    3.3099  -62.0584 H   0  0  0  0  0  0
  -40.2274   -1.3731  -63.0690 H   0  0  0  0  0  0
  -41.4476   -0.7555  -64.2226 H   0  0  0  0  0  0
  -44.3146    2.9940  -61.2261 H   0  0  0  0  0  0
  -43.3339    4.0950  -62.2395 H   0  0  0  0  0  0
  -38.5536    0.2562  -64.0040 H   0  0  0  0  0  0
  -39.7908    0.8383  -65.1581 H   0  0  0  0  0  0
  -45.7725    2.4994  -63.2162 H   0  0  0  0  0  0
  -44.7838    3.6221  -64.1977 H   0  0  0  0  0  0
  -40.6956   -2.4272  -59.3566 H   0  0  0  0  0  0
  1  2  3  0  0  0
  1 30  1  0  0  0
  2 10  1  0  0  0
  3  4  2  0  0  0
  3  5  1  0  0  0
  3 31  1  0  0  0
  4 10  1  0  0  0
  4 32  1  0  0  0
  5 13  2  0  0  0
  5 33  1  0  0  0
  6 10  2  0  0  0
  6 13  1  0  0  0
  6 34  1  0  0  0
  7 11  2  0  0  0
  7 14  1  0  0  0
  7 35  1  0  0  0
  8 12  2  0  0  0
  8 15  1  0  0  0
  8 36  1  0  0  0
  9 23  2  0  0  0
  9 24  1  0  0  0
  9 37  1  0  0  0
 11 12  1  0  0  0
 11 16  1  0  0  0
 12 23  1  0  0  0
 13 25  1  0  0  0
 14 15  2  0  0  0
 14 26  1  0  0  0
 15 27  1  0  0  0
 16 24  2  0  0  0
 16 25  1  0  0  0
 17 28  1  0  0  0
 17 38  1  0  0  0
 17 39  1  0  0  0
 17 40  1  0  0  0
 18 29  1  0  0  0
 18 41  1  0  0  0
 18 42  1  0  0  0
 18 43  1  0  0  0
 19 21  1  0  0  0
 19 26  1  0  0  0
 19 44  1  0  0  0
 19 45  1  0  0  0
 20 22  1  0  0  0
 20 27  1  0  0  0
 20 46  1  0  0  0
 20 47  1  0  0  0
 21 28  1  0  0  0
 21 48  1  0  0  0
 21 49  1  0  0  0
 22 29  1  0  0  0
 22 50  1  0  0  0
 22 51  1  0  0  0
 25 52  1  0  0  0
M  END
> <s_m_entry_id>
42

> <s_m_entry_name>
cAbl-imatinib_nowat-posed-Erlotinib.1

> <s_m_Source_Path>
/Users/albaness/github/kinase-resistance-mutants/sensitivity-analysis/yank/input

> <s_m_Source_File>
cAbl-imatinib_nowat-posed-Erlotinib.mol2

> <i_m_Source_File_Index>
1

$$$$
~{N}-(3-chloro-4-fluoro-phenyl)-7-methoxy-6-(3-morpholinopropoxy)quinazolin-4-amine
                    3D
 Structure written by MMmdl.
 55 58  0  0  1  0            999 V2000
  -41.3742    3.1729  -62.9100 C   0  0  0  0  0  0
  -40.2704    3.8241  -63.4607 C   0  0  0  0  0  0
  -43.8984   -0.5617  -60.6155 C   0  0  0  0  0  0
  -46.0484    0.4621  -59.1854 C   0  0  0  0  0  0
  -40.5758    1.0712  -63.7945 C   0  0  0  0  0  0
  -45.1892    3.2668  -61.2474 C   0  0  0  0  0  0
  -44.3381    0.7550  -60.8367 C   0  0  0  0  0  0
  -45.4239    1.2843  -60.1201 C   0  0  0  0  0  0
  -41.5268    1.7965  -63.0768 C   0  0  0  0  0  0
  -44.5409   -1.3611  -59.6752 C   0  0  0  0  0  0
  -45.6171   -0.8483  -58.9597 C   0  0  0  0  0  0
  -39.3193    3.0988  -64.1784 C   0  0  0  0  0  0
  -39.4720    1.7223  -64.3453 C   0  0  0  0  0  0
  -43.7398    1.6062  -61.7615 C   0  0  0  0  0  0
  -41.3441   -6.5353  -57.0317 C   0  0  0  0  0  0
  -39.3224   -6.2457  -58.3073 C   0  0  0  0  0  0
  -41.0264   -8.0237  -56.9195 C   0  0  0  0  0  0
  -39.0529   -7.7411  -58.1660 C   0  0  0  0  0  0
  -45.7717   -1.5603  -56.6958 C   0  0  0  0  0  0
  -42.4692   -4.2903  -58.8783 C   0  0  0  0  0  0
  -41.0517   -4.5659  -58.3941 C   0  0  0  0  0  0
  -42.7638   -2.8026  -59.0273 C   0  0  0  0  0  0
  -45.8526    2.5423  -60.3235 N   0  0  0  0  0  0
  -44.1434    2.8701  -61.9902 N   0  0  0  0  0  0
  -40.7698   -5.9946  -58.2716 N   0  0  0  0  0  0
  -42.6381    1.1419  -62.5224 N   0  0  0  0  0  0
  -39.6143   -8.2346  -56.9492 O   0  0  0  0  0  0
  -46.2612   -1.6133  -58.0342 O   0  0  0  0  0  0
  -44.1070   -2.6439  -59.4647 O   0  0  0  0  0  0
  -38.2641    3.7386  -64.7024 F   0  0  0  0  0  0
  -38.3027    0.8218  -65.2316 Cl  0  0  0  0  0  0
  -42.1091    3.7475  -62.3515 H   0  0  0  0  0  0
  -40.1522    4.8957  -63.3310 H   0  0  0  0  0  0
  -43.0586   -0.9793  -61.1661 H   0  0  0  0  0  0
  -46.8930    0.8461  -58.6152 H   0  0  0  0  0  0
  -40.6988   -0.0020  -63.9228 H   0  0  0  0  0  0
  -45.5395    4.2794  -61.4064 H   0  0  0  0  0  0
  -42.4320   -6.4018  -57.0270 H   0  0  0  0  0  0
  -40.9327   -6.0083  -56.1609 H   0  0  0  0  0  0
  -38.8224   -5.7062  -57.4924 H   0  0  0  0  0  0
  -38.8991   -5.8968  -59.2562 H   0  0  0  0  0  0
  -41.4017   -8.4133  -55.9677 H   0  0  0  0  0  0
  -41.4998   -8.5996  -57.7238 H   0  0  0  0  0  0
  -39.4590   -8.3082  -59.0127 H   0  0  0  0  0  0
  -37.9742   -7.9242  -58.1327 H   0  0  0  0  0  0
  -46.3732   -2.2153  -56.0608 H   0  0  0  0  0  0
  -45.8225   -0.5321  -56.3287 H   0  0  0  0  0  0
  -44.7328   -1.8984  -56.6837 H   0  0  0  0  0  0
  -42.6228   -4.7817  -59.8472 H   0  0  0  0  0  0
  -43.2014   -4.7391  -58.1952 H   0  0  0  0  0  0
  -40.3257   -4.1573  -59.1039 H   0  0  0  0  0  0
  -40.8726   -4.1045  -57.4177 H   0  0  0  0  0  0
  -42.6476   -2.2775  -58.0742 H   0  0  0  0  0  0
  -42.1008   -2.3463  -59.7693 H   0  0  0  0  0  0
  -42.6634    0.1440  -62.6954 H   0  0  0  0  0  0
  1  2  2  0  0  0
  1  9  1  0  0  0
  1 32  1  0  0  0
  2 12  1  0  0  0
  2 33  1  0  0  0
  3  7  2  0  0  0
  3 10  1  0  0  0
  3 34  1  0  0  0
  4  8  2  0  0  0
  4 11  1  0  0  0
  4 35  1  0  0  0
  5  9  2  0  0  0
  5 13  1  0  0  0
  5 36  1  0  0  0
  6 23  2  0  0  0
  6 24  1  0  0  0
  6 37  1  0  0  0
  7  8  1  0  0  0
  7 14  1  0  0  0
  8 23  1  0  0  0
  9 26  1  0  0  0
 10 11  2  0  0  0
 10 29  1  0  0  0
 11 28  1  0  0  0
 12 13  2  0  0  0
 12 30  1  0  0  0
 13 31  1  0  0  0
 14 24  2  0  0  0
 14 26  1  0  0  0
 15 17  1  0  0  0
 15 25  1  0  0  0
 15 38  1  0  0  0
 15 39  1  0  0  0
 16 18  1  0  0  0
 16 25  1  0  0  0
 16 40  1  0  0  0
 16 41  1  0  0  0
 17 27  1  0  0  0
 17 42  1  0  0  0
 17 43  1  0  0  0
 18 27  1  0  0  0
 18 44  1  0  0  0
 18 45  1  0  0  0
 19 28  1  0  0  0
 19 46  1  0  0  0
 19 47  1  0  0  0
 19 48  1  0  0  0
 20 21  1  0  0  0
 20 22  1  0  0  0
 20 49  1  0  0  0
 20 50  1  0  0  0
 21 25  1  0  0  0
 21 51  1  0  0  0
 21 52  1  0  0  0
 22 29  1  0  0  0
 22 53  1  0  0  0
 22 54  1  0  0  0
 26 55  1  0  0  0
M  END
> <s_m_entry_id>
43

> <s_m_entry_name>
cAbl-imatinib_nowat-posed-Gefitinib.1

> <s_m_Source_Path>
/Users/albaness/github/kinase-resistance-mutants/sensitivity-analysis/yank/input

> <s_m_Source_File>
cAbl-imatinib_nowat-posed-Gefitinib.mol2

> <i_m_Source_File_Index>
1

$$$$
4-[(4-methylpiperazin-1-yl)methyl]-~{N}-[4-methyl-3-[[4-(3-pyridyl)pyrimidin-2-yl]amino]phenyl]benzamide
                    3D
 Structure written by MMmdl.
 68 72  0  0  1  0            999 V2000
  -43.4374  -14.5912  -57.1333 C   0  0  0  0  0  0
  -42.8075  -13.5734  -57.8491 C   0  0  0  0  0  0
  -44.5079   -1.5798  -59.0649 C   0  0  0  0  0  0
  -42.3793   -0.9400  -60.0027 C   0  0  0  0  0  0
  -45.0526   -0.3539  -59.4570 C   0  0  0  0  0  0
  -42.9258    0.2872  -60.3878 C   0  0  0  0  0  0
  -38.3051   -5.2585  -57.7449 C   0  0  0  0  0  0
  -39.1283   -4.2364  -58.2177 C   0  0  0  0  0  0
  -41.4087  -11.3084  -59.2867 C   0  0  0  0  0  0
  -41.0604   -5.6390  -57.9129 C   0  0  0  0  0  0
  -43.7130  -14.3728  -55.7985 C   0  0  0  0  0  0
  -40.8031  -10.1853  -59.8088 C   0  0  0  0  0  0
  -42.8011  -12.2640  -55.8843 C   0  0  0  0  0  0
  -42.4651  -12.3562  -57.2403 C   0  0  0  0  0  0
  -43.1668   -1.8843  -59.3364 C   0  0  0  0  0  0
  -44.2700    0.5904  -60.1297 C   0  0  0  0  0  0
  -38.8481   -6.4842  -57.3444 C   0  0  0  0  0  0
  -40.5146   -4.4117  -58.3002 C   0  0  0  0  0  0
  -40.2373   -6.6841  -57.4482 C   0  0  0  0  0  0
  -41.8024  -11.2445  -57.9597 C   0  0  0  0  0  0
  -41.0021   -9.0481  -57.8261 C   0  0  0  0  0  0
  -42.6442   -3.2143  -58.9015 C   0  0  0  0  0  0
  -44.4066    1.9316  -64.3105 C   0  0  0  0  0  0
  -44.3352    4.2104  -63.5075 C   0  0  0  0  0  0
  -44.9721    1.4819  -62.9610 C   0  0  0  0  0  0
  -44.8735    3.7391  -62.1515 C   0  0  0  0  0  0
  -37.9351   -7.5604  -56.8292 C   0  0  0  0  0  0
  -44.1893    3.7516  -65.8684 C   0  0  0  0  0  0
  -44.8757    1.9127  -60.5536 C   0  0  0  0  0  0
  -43.4084  -13.2314  -55.1523 N   0  0  0  0  0  0
  -40.5907   -9.0536  -59.1130 N   0  0  0  0  0  0
  -41.5949  -10.1143  -57.2344 N   0  0  0  0  0  0
  -44.7694    3.3246  -64.5958 N   0  0  0  0  0  0
  -44.4603    2.3537  -61.8944 N   0  0  0  0  0  0
  -40.8297   -7.8935  -57.0462 N   0  0  0  0  0  0
  -41.2650   -3.3043  -58.7672 N   0  0  0  0  0  0
  -43.4604   -4.1039  -58.6810 O   0  0  0  0  0  0
  -43.7037  -15.5250  -57.6151 H   0  0  0  0  0  0
  -42.6014  -13.7602  -58.8993 H   0  0  0  0  0  0
  -45.1519   -2.2854  -58.5458 H   0  0  0  0  0  0
  -41.3376   -1.1215  -60.2473 H   0  0  0  0  0  0
  -46.0961   -0.1457  -59.2341 H   0  0  0  0  0  0
  -42.2877    1.0015  -60.9028 H   0  0  0  0  0  0
  -37.2334   -5.0849  -57.6855 H   0  0  0  0  0  0
  -38.6705   -3.2948  -58.5134 H   0  0  0  0  0  0
  -41.5452  -12.1796  -59.9136 H   0  0  0  0  0  0
  -42.1283   -5.8253  -57.9581 H   0  0  0  0  0  0
  -44.2009  -15.1322  -55.1972 H   0  0  0  0  0  0
  -40.4623  -10.1660  -60.8385 H   0  0  0  0  0  0
  -42.5803  -11.3723  -55.3032 H   0  0  0  0  0  0
  -43.3153    1.8027  -64.3103 H   0  0  0  0  0  0
  -44.8114    1.2750  -65.0899 H   0  0  0  0  0  0
  -44.7040    5.2267  -63.6917 H   0  0  0  0  0  0
  -43.2387    4.2639  -63.4630 H   0  0  0  0  0  0
  -46.0701    1.4907  -62.9857 H   0  0  0  0  0  0
  -44.6610    0.4434  -62.8023 H   0  0  0  0  0  0
  -44.4735    4.4025  -61.3753 H   0  0  0  0  0  0
  -45.9676    3.8331  -62.1276 H   0  0  0  0  0  0
  -38.3610   -8.0384  -55.9409 H   0  0  0  0  0  0
  -37.7656   -8.3149  -57.6033 H   0  0  0  0  0  0
  -36.9670   -7.1452  -56.5300 H   0  0  0  0  0  0
  -44.5070    4.7709  -66.1129 H   0  0  0  0  0  0
  -44.5347    3.1069  -66.6840 H   0  0  0  0  0  0
  -43.0934    3.7255  -65.8518 H   0  0  0  0  0  0
  -45.9713    1.8634  -60.4993 H   0  0  0  0  0  0
  -44.5528    2.6496  -59.8064 H   0  0  0  0  0  0
  -41.1955   -7.9288  -56.1030 H   0  0  0  0  0  0
  -40.7021   -2.4863  -58.9797 H   0  0  0  0  0  0
  1  2  2  0  0  0
  1 11  1  0  0  0
  1 38  1  0  0  0
  2 14  1  0  0  0
  2 39  1  0  0  0
  3  5  2  0  0  0
  3 15  1  0  0  0
  3 40  1  0  0  0
  4  6  1  0  0  0
  4 15  2  0  0  0
  4 41  1  0  0  0
  5 16  1  0  0  0
  5 42  1  0  0  0
  6 16  2  0  0  0
  6 43  1  0  0  0
  7  8  2  0  0  0
  7 17  1  0  0  0
  7 44  1  0  0  0
  8 18  1  0  0  0
  8 45  1  0  0  0
  9 12  2  0  0  0
  9 20  1  0  0  0
  9 46  1  0  0  0
 10 18  2  0  0  0
 10 19  1  0  0  0
 10 47  1  0  0  0
 11 30  2  0  0  0
 11 48  1  0  0  0
 12 31  1  0  0  0
 12 49  1  0  0  0
 13 14  2  0  0  0
 13 30  1  0  0  0
 13 50  1  0  0  0
 14 20  1  0  0  0
 15 22  1  0  0  0
 16 29  1  0  0  0
 17 19  2  0  0  0
 17 27  1  0  0  0
 18 36  1  0  0  0
 19 35  1  0  0  0
 20 32  2  0  0  0
 21 31  2  0  0  0
 21 32  1  0  0  0
 21 35  1  0  0  0
 22 36  1  0  0  0
 22 37  2  0  0  0
 23 25  1  0  0  0
 23 33  1  0  0  0
 23 51  1  0  0  0
 23 52  1  0  0  0
 24 26  1  0  0  0
 24 33  1  0  0  0
 24 53  1  0  0  0
 24 54  1  0  0  0
 25 34  1  0  0  0
 25 55  1  0  0  0
 25 56  1  0  0  0
 26 34  1  0  0  0
 26 57  1  0  0  0
 26 58  1  0  0  0
 27 59  1  0  0  0
 27 60  1  0  0  0
 27 61  1  0  0  0
 28 33  1  0  0  0
 28 62  1  0  0  0
 28 63  1  0  0  0
 28 64  1  0  0  0
 29 34  1  0  0  0
 29 65  1  0  0  0
 29 66  1  0  0  0
 35 67  1  0  0  0
 36 68  1  0  0  0
M  END
> <s_m_entry_id>
44

> <s_m_entry_name>
cAbl-imatinib_nowat-posed-Imatinib.1

> <s_m_Source_Path>
/Users/albaness/github/kinase-resistance-mutants/sensitivity-analysis/yank/input

> <s_m_Source_File>
cAbl-imatinib_nowat-posed-Imatinib.mol2

> <i_m_Source_File_Index>
1

$$$$
4-methyl-~{N}-[3-(4-methylimidazol-1-yl)-5-(trifluoromethyl)phenyl]-3-[[4-(3-pyridyl)pyrimidin-2-yl]amino]benzamide
                    3D
 Structure written by MMmdl.
 61 65  0  0  1  0            999 V2000
  -43.4519  -14.6431  -57.1307 C   0  0  0  0  0  0
  -42.8227  -13.6298  -57.8537 C   0  0  0  0  0  0
  -39.1128   -4.2918  -58.2222 C   0  0  0  0  0  0
  -38.2957   -5.2988  -57.7059 C   0  0  0  0  0  0
  -41.4369  -11.3657  -59.3099 C   0  0  0  0  0  0
  -41.0359   -5.7265  -57.9800 C   0  0  0  0  0  0
  -45.6684   -0.4909  -59.2079 C   0  0  0  0  0  0
  -44.8906   -2.5682  -58.2596 C   0  0  0  0  0  0
  -43.3957   -1.2347  -59.6069 C   0  0  0  0  0  0
  -43.7312  -14.4143  -55.7984 C   0  0  0  0  0  0
  -40.8296  -10.2450  -59.8366 C   0  0  0  0  0  0
  -42.8217  -12.3054  -55.8988 C   0  0  0  0  0  0
  -45.0929    1.8634  -60.9134 C   0  0  0  0  0  0
  -43.0291    1.2162  -61.2708 C   0  0  0  0  0  0
  -42.4828  -12.4075  -57.2537 C   0  0  0  0  0  0
  -40.4915   -4.4931  -58.3578 C   0  0  0  0  0  0
  -38.8354   -6.5298  -57.3144 C   0  0  0  0  0  0
  -45.9141   -1.6326  -58.4387 C   0  0  0  0  0  0
  -44.4155   -0.2866  -59.8032 C   0  0  0  0  0  0
  -40.2171   -6.7519  -57.4684 C   0  0  0  0  0  0
  -43.6259   -2.3795  -58.8329 C   0  0  0  0  0  0
  -41.8195  -11.3004  -57.9797 C   0  0  0  0  0  0
  -44.4367    2.7413  -61.7481 C   0  0  0  0  0  0
  -41.0017   -9.1101  -57.8513 C   0  0  0  0  0  0
  -41.3107   -3.3657  -58.8984 C   0  0  0  0  0  0
  -37.9286   -7.5905  -56.7555 C   0  0  0  0  0  0
  -44.9540    3.9679  -62.3851 C   0  0  0  0  0  0
  -47.2514   -1.8625  -57.7966 C   0  0  0  0  0  0
  -43.4302  -13.2673  -55.1606 N   0  0  0  0  0  0
  -40.6027   -9.1157  -59.1416 N   0  0  0  0  0  0
  -43.1486    2.3309  -61.9577 N   0  0  0  0  0  0
  -41.5978  -10.1724  -57.2559 N   0  0  0  0  0  0
  -44.1893    0.8658  -60.6110 N   0  0  0  0  0  0
  -40.8054   -7.9632  -57.0673 N   0  0  0  0  0  0
  -42.6601   -3.3853  -58.5685 N   0  0  0  0  0  0
  -40.7290   -2.4966  -59.5408 O   0  0  0  0  0  0
  -48.2326   -1.0383  -58.2580 F   0  0  0  0  0  0
  -47.7169   -3.1282  -57.9893 F   0  0  0  0  0  0
  -47.2154   -1.6780  -56.4480 F   0  0  0  0  0  0
  -43.7145  -15.5820  -57.6048 H   0  0  0  0  0  0
  -42.6125  -13.8253  -58.9015 H   0  0  0  0  0  0
  -38.6499   -3.3495  -58.5047 H   0  0  0  0  0  0
  -37.2297   -5.1090  -57.6063 H   0  0  0  0  0  0
  -41.5849  -12.2351  -59.9367 H   0  0  0  0  0  0
  -42.1002   -5.9254  -58.0757 H   0  0  0  0  0  0
  -46.4777    0.2216  -59.3292 H   0  0  0  0  0  0
  -45.0864   -3.4537  -57.6576 H   0  0  0  0  0  0
  -42.4277   -1.0819  -60.0633 H   0  0  0  0  0  0
  -44.2190  -15.1699  -55.1921 H   0  0  0  0  0  0
  -40.4986  -10.2255  -60.8693 H   0  0  0  0  0  0
  -42.6044  -11.4085  -55.3241 H   0  0  0  0  0  0
  -46.1083    1.8809  -60.5444 H   0  0  0  0  0  0
  -42.1204    0.6321  -61.2327 H   0  0  0  0  0  0
  -38.3366   -7.9967  -55.8242 H   0  0  0  0  0  0
  -37.8035   -8.4000  -57.4815 H   0  0  0  0  0  0
  -36.9379   -7.1863  -56.5224 H   0  0  0  0  0  0
  -44.6044    4.8546  -61.8492 H   0  0  0  0  0  0
  -44.6121    4.0316  -63.4231 H   0  0  0  0  0  0
  -46.0488    3.9773  -62.3925 H   0  0  0  0  0  0
  -41.1339   -8.0116  -56.1109 H   0  0  0  0  0  0
  -43.0143   -4.1620  -58.0187 H   0  0  0  0  0  0
  1  2  2  0  0  0
  1 10  1  0  0  0
  1 40  1  0  0  0
  2 15  1  0  0  0
  2 41  1  0  0  0
  3  4  2  0  0  0
  3 16  1  0  0  0
  3 42  1  0  0  0
  4 17  1  0  0  0
  4 43  1  0  0  0
  5 11  2  0  0  0
  5 22  1  0  0  0
  5 44  1  0  0  0
  6 16  2  0  0  0
  6 20  1  0  0  0
  6 45  1  0  0  0
  7 18  2  0  0  0
  7 19  1  0  0  0
  7 46  1  0  0  0
  8 18  1  0  0  0
  8 21  2  0  0  0
  8 47  1  0  0  0
  9 19  2  0  0  0
  9 21  1  0  0  0
  9 48  1  0  0  0
 10 29  2  0  0  0
 10 49  1  0  0  0
 11 30  1  0  0  0
 11 50  1  0  0  0
 12 15  2  0  0  0
 12 29  1  0  0  0
 12 51  1  0  0  0
 13 23  2  0  0  0
 13 33  1  0  0  0
 13 52  1  0  0  0
 14 31  2  0  0  0
 14 33  1  0  0  0
 14 53  1  0  0  0
 15 22  1  0  0  0
 16 25  1  0  0  0
 17 20  2  0  0  0
 17 26  1  0  0  0
 18 28  1  0  0  0
 19 33  1  0  0  0
 20 34  1  0  0  0
 21 35  1  0  0  0
 22 32  2  0  0  0
 23 27  1  0  0  0
 23 31  1  0  0  0
 24 30  2  0  0  0
 24 32  1  0  0  0
 24 34  1  0  0  0
 25 35  1  0  0  0
 25 36  2  0  0  0
 26 54  1  0  0  0
 26 55  1  0  0  0
 26 56  1  0  0  0
 27 57  1  0  0  0
 27 58  1  0  0  0
 27 59  1  0  0  0
 28 37  1  0  0  0
 28 38  1  0  0  0
 28 39  1  0  0  0
 34 60  1  0  0  0
 35 61  1  0  0  0
M  END
> <s_m_entry_id>
45

> <s_m_entry_name>
cAbl-imatinib_nowat-posed-Nilotinib.1

> <s_m_Source_Path>
/Users/albaness/github/kinase-resistance-mutants/sensitivity-analysis/yank/input

> <s_m_Source_File>
cAbl-imatinib_nowat-posed-Nilotinib.mol2

> <i_m_Source_File_Index>
1

$$$$
3-(2-imidazo[1,2-b]pyridazin-3-ylethynyl)-4-methyl-~{N}-[4-[(4-methylpiperazin-1-yl)methyl]-3-(trifluoromethyl)phenyl]benzamide
                    3D
 Structure written by MMmdl.
 66 70  0  0  1  0            999 V2000
  -40.8255   -8.4951  -57.3852 C   0  0  0  0  0  0
  -41.1896   -9.6356  -57.4683 C   0  0  0  0  0  0
  -39.8423   -4.4383  -58.0080 C   0  0  0  0  0  0
  -38.8408   -5.3336  -57.6197 C   0  0  0  0  0  0
  -44.8143   -0.4449  -59.5963 C   0  0  0  0  0  0
  -44.1098   -1.5941  -59.2164 C   0  0  0  0  0  0
  -41.4562   -6.2251  -57.9347 C   0  0  0  0  0  0
  -42.0786   -0.5632  -59.9800 C   0  0  0  0  0  0
  -41.5630  -11.4847  -59.0934 C   0  0  0  0  0  0
  -40.4507   -7.1241  -57.5504 C   0  0  0  0  0  0
  -41.6387  -10.9273  -57.8377 C   0  0  0  0  0  0
  -41.1623   -4.8771  -58.1635 C   0  0  0  0  0  0
  -39.1301   -6.6832  -57.3791 C   0  0  0  0  0  0
  -44.1614    0.6578  -60.1780 C   0  0  0  0  0  0
  -42.7632    0.6008  -60.3522 C   0  0  0  0  0  0
  -42.7338   -1.6616  -59.4174 C   0  0  0  0  0  0
  -42.5120  -12.9606  -57.8817 C   0  0  0  0  0  0
  -43.1545  -14.0788  -57.3036 C   0  0  0  0  0  0
  -43.4744  -14.0582  -56.0055 C   0  0  0  0  0  0
  -43.1214  -12.8321  -55.2506 C   0  0  0  0  0  0
  -42.2879   -3.9745  -58.5561 C   0  0  0  0  0  0
  -44.5386    1.9152  -64.3343 C   0  0  0  0  0  0
  -44.4905    4.1897  -63.5008 C   0  0  0  0  0  0
  -45.1421    1.4500  -63.0045 C   0  0  0  0  0  0
  -45.1028    3.7116  -62.1794 C   0  0  0  0  0  0
  -38.0228   -7.6100  -56.9659 C   0  0  0  0  0  0
  -44.2251    3.7542  -65.8543 C   0  0  0  0  0  0
  -44.9969    1.8613  -60.5843 C   0  0  0  0  0  0
  -41.9377    1.7144  -60.9410 C   0  0  0  0  0  0
  -42.1036  -12.7403  -59.1141 N   0  0  0  0  0  0
  -42.5387  -11.7752  -55.7264 N   0  0  0  0  0  0
  -42.2467  -11.8778  -57.0559 N   0  0  0  0  0  0
  -44.8745    3.3167  -64.6186 N   0  0  0  0  0  0
  -44.6844    2.3344  -61.9333 N   0  0  0  0  0  0
  -41.9071   -2.7572  -59.0880 N   0  0  0  0  0  0
  -43.4396   -4.3644  -58.3917 O   0  0  0  0  0  0
  -40.6218    1.6546  -60.5854 F   0  0  0  0  0  0
  -41.9436    1.6992  -62.3018 F   0  0  0  0  0  0
  -42.3434    2.9576  -60.5644 F   0  0  0  0  0  0
  -39.5464   -3.4068  -58.1730 H   0  0  0  0  0  0
  -37.8246   -4.9610  -57.5085 H   0  0  0  0  0  0
  -45.8905   -0.4204  -59.4339 H   0  0  0  0  0  0
  -44.6746   -2.4061  -58.7727 H   0  0  0  0  0  0
  -42.4732   -6.5931  -58.0616 H   0  0  0  0  0  0
  -41.0016   -0.6128  -60.1339 H   0  0  0  0  0  0
  -41.1476  -11.0356  -59.9848 H   0  0  0  0  0  0
  -43.3884  -14.9375  -57.9226 H   0  0  0  0  0  0
  -43.9709  -14.8769  -55.5033 H   0  0  0  0  0  0
  -43.3955  -12.8526  -54.1833 H   0  0  0  0  0  0
  -43.4490    1.7761  -64.3079 H   0  0  0  0  0  0
  -44.9247    1.2718  -65.1335 H   0  0  0  0  0  0
  -44.8355    5.2124  -63.6937 H   0  0  0  0  0  0
  -43.3965    4.2302  -63.3984 H   0  0  0  0  0  0
  -46.2380    1.4358  -63.0624 H   0  0  0  0  0  0
  -44.8116    0.4194  -62.8314 H   0  0  0  0  0  0
  -44.7382    4.3699  -61.3816 H   0  0  0  0  0  0
  -46.1966    3.7970  -62.2031 H   0  0  0  0  0  0
  -38.3044   -8.1646  -56.0647 H   0  0  0  0  0  0
  -37.7925   -8.3122  -57.7725 H   0  0  0  0  0  0
  -37.1084   -7.0560  -56.7257 H   0  0  0  0  0  0
  -44.5155    4.7817  -66.0984 H   0  0  0  0  0  0
  -44.5384    3.1271  -66.6961 H   0  0  0  0  0  0
  -43.1316    3.7129  -65.7845 H   0  0  0  0  0  0
  -46.0693    1.6424  -60.5030 H   0  0  0  0  0  0
  -44.7835    2.6429  -59.8433 H   0  0  0  0  0  0
  -40.9239   -2.6079  -59.2916 H   0  0  0  0  0  0
  1  2  3  0  0  0
  1 10  1  0  0  0
  2 11  1  0  0  0
  3  4  2  0  0  0
  3 12  1  0  0  0
  3 40  1  0  0  0
  4 13  1  0  0  0
  4 41  1  0  0  0
  5  6  2  0  0  0
  5 14  1  0  0  0
  5 42  1  0  0  0
  6 16  1  0  0  0
  6 43  1  0  0  0
  7 10  1  0  0  0
  7 12  2  0  0  0
  7 44  1  0  0  0
  8 15  1  0  0  0
  8 16  2  0  0  0
  8 45  1  0  0  0
  9 11  2  0  0  0
  9 30  1  0  0  0
  9 46  1  0  0  0
 10 13  2  0  0  0
 11 32  1  0  0  0
 12 21  1  0  0  0
 13 26  1  0  0  0
 14 15  2  0  0  0
 14 28  1  0  0  0
 15 29  1  0  0  0
 16 35  1  0  0  0
 17 18  1  0  0  0
 17 30  2  0  0  0
 17 32  1  0  0  0
 18 19  2  0  0  0
 18 47  1  0  0  0
 19 20  1  0  0  0
 19 48  1  0  0  0
 20 31  2  0  0  0
 20 49  1  0  0  0
 21 35  1  0  0  0
 21 36  2  0  0  0
 22 24  1  0  0  0
 22 33  1  0  0  0
 22 50  1  0  0  0
 22 51  1  0  0  0
 23 25  1  0  0  0
 23 33  1  0  0  0
 23 52  1  0  0  0
 23 53  1  0  0  0
 24 34  1  0  0  0
 24 54  1  0  0  0
 24 55  1  0  0  0
 25 34  1  0  0  0
 25 56  1  0  0  0
 25 57  1  0  0  0
 26 58  1  0  0  0
 26 59  1  0  0  0
 26 60  1  0  0  0
 27 33  1  0  0  0
 27 61  1  0  0  0
 27 62  1  0  0  0
 27 63  1  0  0  0
 28 34  1  0  0  0
 28 64  1  0  0  0
 28 65  1  0  0  0
 29 37  1  0  0  0
 29 38  1  0  0  0
 29 39  1  0  0  0
 31 32  1  0  0  0
 35 66  1  0  0  0
M  END
> <s_m_entry_id>
46

> <s_m_entry_name>
cAbl-imatinib_nowat-posed-Ponatinib.1

> <s_m_Source_Path>
/Users/albaness/github/kinase-resistance-mutants/sensitivity-analysis/yank/input

> <s_m_Source_File>
cAbl-imatinib_nowat-posed-Ponatinib.mol2

> <i_m_Source_File_Index>
1

$$$$
