~{N}-methyl-2-[[3-[(~{E})-2-(2-pyridyl)vinyl]-1~{H}-indazol-6-yl]sulfanyl]benzamide
                    3D
 Structure written by MMmdl.
 46 49  0  0  1  0            999 V2000
  -45.4963   -1.4927  -58.8012 C   0  0  0  0  0  0
  -44.2690   -1.4276  -58.1417 C   0  0  0  0  0  0
  -33.8926   -2.7593  -66.1726 C   0  0  0  0  0  0
  -33.9510   -4.0215  -65.5924 C   0  0  0  0  0  0
  -39.6329   -0.5568  -61.7801 C   0  0  0  0  0  0
  -45.7989   -0.5718  -59.8042 C   0  0  0  0  0  0
  -43.3442   -0.4415  -58.4851 C   0  0  0  0  0  0
  -40.3875    0.1092  -60.8062 C   0  0  0  0  0  0
  -34.9785   -1.8980  -66.0608 C   0  0  0  0  0  0
  -41.8781    1.0291  -62.4974 C   0  0  0  0  0  0
  -35.1088   -4.3717  -64.9166 C   0  0  0  0  0  0
  -40.0095   -0.4248  -63.1271 C   0  0  0  0  0  0
  -44.8741    0.4143  -60.1477 C   0  0  0  0  0  0
  -41.1122    0.3571  -63.4526 C   0  0  0  0  0  0
  -41.4906    0.8881  -61.1608 C   0  0  0  0  0  0
  -43.6467    0.4795  -59.4881 C   0  0  0  0  0  0
  -36.0903   -2.3434  -65.3643 C   0  0  0  0  0  0
  -39.5432   -0.9064  -64.3693 C   0  0  0  0  0  0
  -37.2663   -1.4676  -65.2175 C   0  0  0  0  0  0
  -38.4182   -1.7577  -64.5260 C   0  0  0  0  0  0
  -45.2432    1.3510  -61.2032 C   0  0  0  0  0  0
  -45.6546    3.7505  -61.7861 C   0  0  0  0  0  0
  -36.1838   -3.5623  -64.7871 N   0  0  0  0  0  0
  -40.2750   -0.4763  -65.3997 N   0  0  0  0  0  0
  -41.2154    0.2848  -64.8156 N   0  0  0  0  0  0
  -45.2844    2.7051  -60.8593 N   0  0  0  0  0  0
  -45.5231    0.9364  -62.3396 O   0  0  0  0  0  0
  -42.4264    1.7210  -59.8875 S   0  0  0  0  0  0
  -46.2169   -2.2600  -58.5328 H   0  0  0  0  0  0
  -44.0340   -2.1440  -57.3600 H   0  0  0  0  0  0
  -33.0018   -2.4475  -66.7096 H   0  0  0  0  0  0
  -33.1167   -4.7093  -65.6675 H   0  0  0  0  0  0
  -38.7777   -1.1589  -61.4884 H   0  0  0  0  0  0
  -46.7596   -0.6334  -60.3099 H   0  0  0  0  0  0
  -42.3945   -0.4083  -57.9569 H   0  0  0  0  0  0
  -40.0931    0.0049  -59.7638 H   0  0  0  0  0  0
  -34.9400   -0.9112  -66.5110 H   0  0  0  0  0  0
  -42.7324    1.6301  -62.7918 H   0  0  0  0  0  0
  -35.2054   -5.3454  -64.4476 H   0  0  0  0  0  0
  -37.1745   -0.4910  -65.6868 H   0  0  0  0  0  0
  -38.4473   -2.7470  -64.0205 H   0  0  0  0  0  0
  -44.7608    4.1726  -62.2528 H   0  0  0  0  0  0
  -46.1883    4.5483  -61.2625 H   0  0  0  0  0  0
  -46.3041    3.3492  -62.5686 H   0  0  0  0  0  0
  -41.9046    0.7310  -65.4079 H   0  0  0  0  0  0
  -45.1073    2.9812  -59.8990 H   0  0  0  0  0  0
  1  2  2  0  0  0
  1  6  1  0  0  0
  1 29  1  0  0  0
  2  7  1  0  0  0
  2 30  1  0  0  0
  3  4  2  0  0  0
  3  9  1  0  0  0
  3 31  1  0  0  0
  4 11  1  0  0  0
  4 32  1  0  0  0
  5  8  2  0  0  0
  5 12  1  0  0  0
  5 33  1  0  0  0
  6 13  2  0  0  0
  6 34  1  0  0  0
  7 16  2  0  0  0
  7 35  1  0  0  0
  8 15  1  0  0  0
  8 36  1  0  0  0
  9 17  2  0  0  0
  9 37  1  0  0  0
 10 14  1  0  0  0
 10 15  2  0  0  0
 10 38  1  0  0  0
 11 23  2  0  0  0
 11 39  1  0  0  0
 12 14  2  0  0  0
 12 18  1  0  0  0
 13 16  1  0  0  0
 13 21  1  0  0  0
 14 25  1  0  0  0
 15 28  1  0  0  0
 16 28  1  0  0  0
 17 19  1  0  0  0
 17 23  1  0  0  0
 18 20  1  0  0  0
 18 24  2  0  0  0
 19 20  2  0  0  0
 19 40  1  0  0  0
 20 41  1  0  0  0
 21 26  1  0  0  0
 21 27  2  0  0  0
 22 26  1  0  0  0
 22 42  1  0  0  0
 22 43  1  0  0  0
 22 44  1  0  0  0
 24 25  1  0  0  0
 25 45  1  0  0  0
 26 46  1  0  0  0
M  END
> <s_m_entry_id>
55

> <s_m_entry_name>
cAbl-ponatinib_nowat-posed-Axitinib.1

> <s_m_Source_Path>
/Users/albaness/github/kinase-resistance-mutants/sensitivity-analysis/yank/input

> <s_m_Source_File>
cAbl-ponatinib_nowat-posed-Axitinib.mol2

> <i_m_Source_File_Index>
1

$$$$
4-(2,4-dichloro-5-methoxy-anilino)-6-methoxy-7-[3-(4-methylpiperazin-1-yl)propoxy]quinoline-3-carbonitrile
                    3D
 Structure written by MMmdl.
 65 68  0  0  1  0            999 V2000
  -47.0218    4.0488  -62.2225 C   0  0  0  0  0  0
  -43.4008    0.9677  -60.9519 C   0  0  0  0  0  0
  -45.3102   -0.6759  -59.7880 C   0  0  0  0  0  0
  -44.5311    3.0485  -64.5707 C   0  0  0  0  0  0
  -43.4354    5.5572  -65.1081 C   0  0  0  0  0  0
  -47.4104    1.9779  -61.0104 C   0  0  0  0  0  0
  -46.5295    2.8529  -61.6130 C   0  0  0  0  0  0
  -44.7572    1.3333  -60.9851 C   0  0  0  0  0  0
  -45.7335    0.5030  -60.3956 C   0  0  0  0  0  0
  -44.1085    3.8643  -63.5212 C   0  0  0  0  0  0
  -45.1827    2.5200  -61.5970 C   0  0  0  0  0  0
  -43.0055   -0.2170  -60.3373 C   0  0  0  0  0  0
  -43.9617   -1.0396  -59.7548 C   0  0  0  0  0  0
  -44.4057    3.4870  -65.8890 C   0  0  0  0  0  0
  -43.5607    5.1186  -63.7898 C   0  0  0  0  0  0
  -43.8579    4.7414  -66.1576 C   0  0  0  0  0  0
  -40.9466   -7.7393  -56.6601 C   0  0  0  0  0  0
  -39.3547   -5.9322  -56.7876 C   0  0  0  0  0  0
  -41.9989   -6.8603  -57.3448 C   0  0  0  0  0  0
  -40.4070   -5.0540  -57.4734 C   0  0  0  0  0  0
  -38.5898   -8.1890  -56.4168 C   0  0  0  0  0  0
  -41.1985   -1.3369  -61.4035 C   0  0  0  0  0  0
  -43.8691    1.7617  -67.4352 C   0  0  0  0  0  0
  -42.8536   -3.2122  -57.0990 C   0  0  0  0  0  0
  -42.7638   -4.6031  -57.7127 C   0  0  0  0  0  0
  -43.9115   -2.3401  -57.7643 C   0  0  0  0  0  0
  -47.4214    5.0195  -62.7174 N   0  0  0  0  0  0
  -47.0412    0.8235  -60.4096 N   0  0  0  0  0  0
  -39.5922   -7.3523  -57.0738 N   0  0  0  0  0  0
  -41.7608   -5.4404  -57.0577 N   0  0  0  0  0  0
  -44.2473    3.3957  -62.2064 N   0  0  0  0  0  0
  -41.6875   -0.5570  -60.3135 O   0  0  0  0  0  0
  -44.8270    2.6691  -66.8949 O   0  0  0  0  0  0
  -43.5958   -2.2108  -59.1443 O   0  0  0  0  0  0
  -43.0250    6.1599  -62.5197 Cl  0  0  0  0  0  0
  -43.6915    5.3083  -67.7784 Cl  0  0  0  0  0  0
  -42.6343    1.5957  -61.4009 H   0  0  0  0  0  0
  -46.0453   -1.3335  -59.3259 H   0  0  0  0  0  0
  -44.9589    2.0695  -64.3666 H   0  0  0  0  0  0
  -43.0081    6.5355  -65.3184 H   0  0  0  0  0  0
  -48.4790    2.1723  -60.9846 H   0  0  0  0  0  0
  -41.0587   -7.6675  -55.5696 H   0  0  0  0  0  0
  -41.1351   -8.7832  -56.9389 H   0  0  0  0  0  0
  -38.3656   -5.6396  -57.1605 H   0  0  0  0  0  0
  -39.3646   -5.7434  -55.7054 H   0  0  0  0  0  0
  -41.9895   -7.0484  -58.4271 H   0  0  0  0  0  0
  -42.9879   -7.1529  -56.9717 H   0  0  0  0  0  0
  -40.2181   -4.0099  -57.1957 H   0  0  0  0  0  0
  -40.2955   -5.1273  -58.5638 H   0  0  0  0  0  0
  -37.5866   -7.8913  -56.7327 H   0  0  0  0  0  0
  -38.7440   -9.2394  -56.6784 H   0  0  0  0  0  0
  -38.6626   -8.0839  -55.3310 H   0  0  0  0  0  0
  -40.1340   -1.5376  -61.2602 H   0  0  0  0  0  0
  -41.3553   -0.7950  -62.3396 H   0  0  0  0  0  0
  -41.7441   -2.2829  -61.4366 H   0  0  0  0  0  0
  -44.3334    1.1697  -68.2277 H   0  0  0  0  0  0
  -43.5009    1.1047  -66.6432 H   0  0  0  0  0  0
  -43.0345    2.3314  -67.8506 H   0  0  0  0  0  0
  -43.0877   -3.3022  -56.0309 H   0  0  0  0  0  0
  -41.8809   -2.7069  -57.1511 H   0  0  0  0  0  0
  -43.7236   -5.1200  -57.6152 H   0  0  0  0  0  0
  -42.5111   -4.5484  -58.7765 H   0  0  0  0  0  0
  -44.9063   -2.7882  -57.6791 H   0  0  0  0  0  0
  -43.9306   -1.3410  -57.3173 H   0  0  0  0  0  0
  -43.5500    3.7454  -61.5611 H   0  0  0  0  0  0
  1  7  1  0  0  0
  1 27  3  0  0  0
  2  8  2  0  0  0
  2 12  1  0  0  0
  2 37  1  0  0  0
  3  9  2  0  0  0
  3 13  1  0  0  0
  3 38  1  0  0  0
  4 10  2  0  0  0
  4 14  1  0  0  0
  4 39  1  0  0  0
  5 15  2  0  0  0
  5 16  1  0  0  0
  5 40  1  0  0  0
  6  7  1  0  0  0
  6 28  2  0  0  0
  6 41  1  0  0  0
  7 11  2  0  0  0
  8  9  1  0  0  0
  8 11  1  0  0  0
  9 28  1  0  0  0
 10 15  1  0  0  0
 10 31  1  0  0  0
 11 31  1  0  0  0
 12 13  2  0  0  0
 12 32  1  0  0  0
 13 34  1  0  0  0
 14 16  2  0  0  0
 14 33  1  0  0  0
 15 35  1  0  0  0
 16 36  1  0  0  0
 17 19  1  0  0  0
 17 29  1  0  0  0
 17 42  1  0  0  0
 17 43  1  0  0  0
 18 20  1  0  0  0
 18 29  1  0  0  0
 18 44  1  0  0  0
 18 45  1  0  0  0
 19 30  1  0  0  0
 19 46  1  0  0  0
 19 47  1  0  0  0
 20 30  1  0  0  0
 20 48  1  0  0  0
 20 49  1  0  0  0
 21 29  1  0  0  0
 21 50  1  0  0  0
 21 51  1  0  0  0
 21 52  1  0  0  0
 22 32  1  0  0  0
 22 53  1  0  0  0
 22 54  1  0  0  0
 22 55  1  0  0  0
 23 33  1  0  0  0
 23 56  1  0  0  0
 23 57  1  0  0  0
 23 58  1  0  0  0
 24 25  1  0  0  0
 24 26  1  0  0  0
 24 59  1  0  0  0
 24 60  1  0  0  0
 25 30  1  0  0  0
 25 61  1  0  0  0
 25 62  1  0  0  0
 26 34  1  0  0  0
 26 63  1  0  0  0
 26 64  1  0  0  0
 31 65  1  0  0  0
M  END
> <s_m_entry_id>
56

> <s_m_entry_name>
cAbl-ponatinib_nowat-posed-Bosutinib.1

> <s_m_Source_Path>
/Users/albaness/github/kinase-resistance-mutants/sensitivity-analysis/yank/input

> <s_m_Source_File>
cAbl-ponatinib_nowat-posed-Bosutinib.mol2

> <i_m_Source_File_Index>
1

$$$$
~{N}-(2-chloro-6-methyl-phenyl)-2-[[6-[4-(2-hydroxyethyl)piperazin-1-yl]-2-methyl-pyrimidin-4-yl]amino]thiazole-5-carboxamide
                    3D
 Structure written by MMmdl.
 59 62  0  0  1  0            999 V2000
  -45.0961    4.0366  -63.9867 C   0  0  0  0  0  0
  -44.4395    2.9652  -64.5787 C   0  0  0  0  0  0
  -45.2648    4.0635  -62.6084 C   0  0  0  0  0  0
  -42.2321   -6.3450  -57.5271 C   0  0  0  0  0  0
  -42.0044   -1.1839  -60.0643 C   0  0  0  0  0  0
  -43.9471    1.9040  -63.8000 C   0  0  0  0  0  0
  -44.1205    1.9183  -62.3916 C   0  0  0  0  0  0
  -44.7819    3.0182  -61.8085 C   0  0  0  0  0  0
  -43.3547   -0.8993  -60.0343 C   0  0  0  0  0  0
  -41.3229   -7.2718  -57.0304 C   0  0  0  0  0  0
  -41.7893   -5.0922  -57.9561 C   0  0  0  0  0  0
  -39.6513   -5.7066  -57.4080 C   0  0  0  0  0  0
  -42.6876   -3.0109  -59.0145 C   0  0  0  0  0  0
  -44.1465    0.2011  -60.5512 C   0  0  0  0  0  0
  -40.9153   -9.3061  -55.7170 C   0  0  0  0  0  0
  -42.6962   -9.2758  -57.4441 C   0  0  0  0  0  0
  -41.7486  -10.3385  -54.9490 C   0  0  0  0  0  0
  -43.4735  -10.3033  -56.6185 C   0  0  0  0  0  0
  -43.2507    0.7737  -64.5147 C   0  0  0  0  0  0
  -38.1969   -5.3628  -57.3462 C   0  0  0  0  0  0
  -43.2472  -12.2244  -55.1166 C   0  0  0  0  0  0
  -44.0263  -13.2078  -55.9925 C   0  0  0  0  0  0
  -41.6249   -2.3868  -59.4797 N   0  0  0  0  0  0
  -40.0127   -6.9363  -56.9652 N   0  0  0  0  0  0
  -40.4833   -4.7665  -57.9099 N   0  0  0  0  0  0
  -41.7861   -8.5162  -56.5825 N   0  0  0  0  0  0
  -42.5520  -11.1652  -55.8668 N   0  0  0  0  0  0
  -43.5825    0.8203  -61.6629 N   0  0  0  0  0  0
  -42.7968   -4.2183  -58.4196 N   0  0  0  0  0  0
  -45.2633    0.4538  -60.1036 O   0  0  0  0  0  0
  -43.2010  -13.7353  -57.0219 O   0  0  0  0  0  0
  -44.1728   -2.1599  -59.2288 S   0  0  0  0  0  0
  -45.0033    3.2387  -60.1068 Cl  0  0  0  0  0  0
  -45.4680    4.8542  -64.5965 H   0  0  0  0  0  0
  -44.3122    2.9619  -65.6588 H   0  0  0  0  0  0
  -45.7686    4.9179  -62.1617 H   0  0  0  0  0  0
  -43.2935   -6.5738  -57.5721 H   0  0  0  0  0  0
  -41.2394   -0.5600  -60.5081 H   0  0  0  0  0  0
  -40.4099   -8.6664  -54.9828 H   0  0  0  0  0  0
  -40.1453   -9.8070  -56.3166 H   0  0  0  0  0  0
  -42.1137   -9.7826  -58.2248 H   0  0  0  0  0  0
  -43.4288   -8.6437  -57.9553 H   0  0  0  0  0  0
  -41.0631  -10.9696  -54.3716 H   0  0  0  0  0  0
  -42.4021   -9.8246  -54.2297 H   0  0  0  0  0  0
  -44.1672   -9.7905  -55.9390 H   0  0  0  0  0  0
  -44.0762  -10.8889  -57.3203 H   0  0  0  0  0  0
  -42.1814    0.7812  -64.2835 H   0  0  0  0  0  0
  -43.6855   -0.1893  -64.2273 H   0  0  0  0  0  0
  -43.3596    0.8582  -65.6019 H   0  0  0  0  0  0
  -37.7275   -5.5691  -58.3122 H   0  0  0  0  0  0
  -38.0635   -4.3034  -57.1065 H   0  0  0  0  0  0
  -37.6911   -5.9531  -56.5757 H   0  0  0  0  0  0
  -43.9222  -11.7981  -54.3640 H   0  0  0  0  0  0
  -42.4878  -12.8084  -54.5805 H   0  0  0  0  0  0
  -44.9121  -12.7514  -56.4445 H   0  0  0  0  0  0
  -44.3697  -14.0493  -55.3820 H   0  0  0  0  0  0
  -42.8217    0.3236  -62.1194 H   0  0  0  0  0  0
  -43.7376   -4.5321  -58.1978 H   0  0  0  0  0  0
  -42.9038  -12.9851  -57.5652 H   0  0  0  0  0  0
  1  2  2  0  0  0
  1  3  1  0  0  0
  1 34  1  0  0  0
  2  6  1  0  0  0
  2 35  1  0  0  0
  3  8  2  0  0  0
  3 36  1  0  0  0
  4 10  2  0  0  0
  4 11  1  0  0  0
  4 37  1  0  0  0
  5  9  2  0  0  0
  5 23  1  0  0  0
  5 38  1  0  0  0
  6  7  2  0  0  0
  6 19  1  0  0  0
  7  8  1  0  0  0
  7 28  1  0  0  0
  8 33  1  0  0  0
  9 14  1  0  0  0
  9 32  1  0  0  0
 10 24  1  0  0  0
 10 26  1  0  0  0
 11 25  2  0  0  0
 11 29  1  0  0  0
 12 20  1  0  0  0
 12 24  2  0  0  0
 12 25  1  0  0  0
 13 23  2  0  0  0
 13 29  1  0  0  0
 13 32  1  0  0  0
 14 28  1  0  0  0
 14 30  2  0  0  0
 15 17  1  0  0  0
 15 26  1  0  0  0
 15 39  1  0  0  0
 15 40  1  0  0  0
 16 18  1  0  0  0
 16 26  1  0  0  0
 16 41  1  0  0  0
 16 42  1  0  0  0
 17 27  1  0  0  0
 17 43  1  0  0  0
 17 44  1  0  0  0
 18 27  1  0  0  0
 18 45  1  0  0  0
 18 46  1  0  0  0
 19 47  1  0  0  0
 19 48  1  0  0  0
 19 49  1  0  0  0
 20 50  1  0  0  0
 20 51  1  0  0  0
 20 52  1  0  0  0
 21 22  1  0  0  0
 21 27  1  0  0  0
 21 53  1  0  0  0
 21 54  1  0  0  0
 22 31  1  0  0  0
 22 55  1  0  0  0
 22 56  1  0  0  0
 28 57  1  0  0  0
 29 58  1  0  0  0
 31 59  1  0  0  0
M  END
> <s_m_entry_id>
57

> <s_m_entry_name>
cAbl-ponatinib_nowat-posed-Dasatinib.1

> <s_m_Source_Path>
/Users/albaness/github/kinase-resistance-mutants/sensitivity-analysis/yank/input

> <s_m_Source_File>
cAbl-ponatinib_nowat-posed-Dasatinib.mol2

> <i_m_Source_File_Index>
1

$$$$
~{N}-(3-ethynylphenyl)-6,7-bis(2-methoxyethoxy)quinazolin-4-amine
                    3D
 Structure written by MMmdl.
 52 54  0  0  1  0            999 V2000
  -38.2980   -6.9175  -56.0520 C   0  0  0  0  0  0
  -39.2484   -6.4845  -56.6446 C   0  0  0  0  0  0
  -42.6741   -6.1923  -58.0714 C   0  0  0  0  0  0
  -41.5697   -6.6952  -57.3835 C   0  0  0  0  0  0
  -42.5881   -4.9632  -58.7253 C   0  0  0  0  0  0
  -40.2933   -4.7397  -58.0033 C   0  0  0  0  0  0
  -41.0532   -1.3643  -61.6700 C   0  0  0  0  0  0
  -43.0031    0.5621  -62.1206 C   0  0  0  0  0  0
  -44.1790   -0.9141  -59.0720 C   0  0  0  0  0  0
  -40.3794   -5.9689  -57.3495 C   0  0  0  0  0  0
  -42.1256   -1.2137  -60.7737 C   0  0  0  0  0  0
  -43.1177   -0.2436  -60.9904 C   0  0  0  0  0  0
  -41.3977   -4.2369  -58.6912 C   0  0  0  0  0  0
  -40.9636   -0.5457  -62.7915 C   0  0  0  0  0  0
  -41.9397    0.4185  -63.0167 C   0  0  0  0  0  0
  -42.2742   -1.9995  -59.6343 C   0  0  0  0  0  0
  -36.2655   -1.5806  -65.2951 C   0  0  0  0  0  0
  -40.0578    4.3768  -64.0806 C   0  0  0  0  0  0
  -39.7823   -1.9686  -64.2868 C   0  0  0  0  0  0
  -42.4304    2.5370  -63.9794 C   0  0  0  0  0  0
  -38.5885   -1.9283  -65.2212 C   0  0  0  0  0  0
  -41.7261    3.2675  -62.8523 C   0  0  0  0  0  0
  -44.1478   -0.0911  -60.1398 N   0  0  0  0  0  0
  -43.2921   -1.8735  -58.7622 N   0  0  0  0  0  0
  -41.3117   -2.9999  -59.3494 N   0  0  0  0  0  0
  -39.9224   -0.6970  -63.6554 O   0  0  0  0  0  0
  -41.8719    1.2312  -64.1082 O   0  0  0  0  0  0
  -37.4225   -1.6104  -64.4710 O   0  0  0  0  0  0
  -40.3364    3.3439  -63.1457 O   0  0  0  0  0  0
  -37.4551   -7.3011  -55.5263 H   0  0  0  0  0  0
  -43.6010   -6.7578  -58.0980 H   0  0  0  0  0  0
  -41.6524   -7.6548  -56.8788 H   0  0  0  0  0  0
  -43.4548   -4.5808  -59.2584 H   0  0  0  0  0  0
  -39.3665   -4.1696  -57.9793 H   0  0  0  0  0  0
  -40.2808   -2.1129  -61.5096 H   0  0  0  0  0  0
  -43.7579    1.3229  -62.3139 H   0  0  0  0  0  0
  -45.0114   -0.7861  -58.3907 H   0  0  0  0  0  0
  -35.3911   -1.3340  -64.6879 H   0  0  0  0  0  0
  -36.3974   -0.8347  -66.0830 H   0  0  0  0  0  0
  -36.1261   -2.5652  -65.7477 H   0  0  0  0  0  0
  -38.9842    4.4069  -64.2824 H   0  0  0  0  0  0
  -40.3901    5.3358  -63.6752 H   0  0  0  0  0  0
  -40.5950    4.1702  -65.0093 H   0  0  0  0  0  0
  -39.6470   -2.7236  -63.5062 H   0  0  0  0  0  0
  -40.6993   -2.1765  -64.8459 H   0  0  0  0  0  0
  -42.2981    3.0598  -64.9316 H   0  0  0  0  0  0
  -43.4972    2.4334  -63.7607 H   0  0  0  0  0  0
  -38.7169   -1.1626  -65.9926 H   0  0  0  0  0  0
  -38.4377   -2.9042  -65.6919 H   0  0  0  0  0  0
  -41.8453    2.7366  -61.9027 H   0  0  0  0  0  0
  -42.1126    4.2864  -62.7560 H   0  0  0  0  0  0
  -40.3851   -2.7722  -59.6899 H   0  0  0  0  0  0
  1  2  3  0  0  0
  1 30  1  0  0  0
  2 10  1  0  0  0
  3  4  2  0  0  0
  3  5  1  0  0  0
  3 31  1  0  0  0
  4 10  1  0  0  0
  4 32  1  0  0  0
  5 13  2  0  0  0
  5 33  1  0  0  0
  6 10  2  0  0  0
  6 13  1  0  0  0
  6 34  1  0  0  0
  7 11  2  0  0  0
  7 14  1  0  0  0
  7 35  1  0  0  0
  8 12  2  0  0  0
  8 15  1  0  0  0
  8 36  1  0  0  0
  9 23  2  0  0  0
  9 24  1  0  0  0
  9 37  1  0  0  0
 11 12  1  0  0  0
 11 16  1  0  0  0
 12 23  1  0  0  0
 13 25  1  0  0  0
 14 15  2  0  0  0
 14 26  1  0  0  0
 15 27  1  0  0  0
 16 24  2  0  0  0
 16 25  1  0  0  0
 17 28  1  0  0  0
 17 38  1  0  0  0
 17 39  1  0  0  0
 17 40  1  0  0  0
 18 29  1  0  0  0
 18 41  1  0  0  0
 18 42  1  0  0  0
 18 43  1  0  0  0
 19 21  1  0  0  0
 19 26  1  0  0  0
 19 44  1  0  0  0
 19 45  1  0  0  0
 20 22  1  0  0  0
 20 27  1  0  0  0
 20 46  1  0  0  0
 20 47  1  0  0  0
 21 28  1  0  0  0
 21 48  1  0  0  0
 21 49  1  0  0  0
 22 29  1  0  0  0
 22 50  1  0  0  0
 22 51  1  0  0  0
 25 52  1  0  0  0
M  END
> <s_m_entry_id>
58

> <s_m_entry_name>
cAbl-ponatinib_nowat-posed-Erlotinib.1

> <s_m_Source_Path>
/Users/albaness/github/kinase-resistance-mutants/sensitivity-analysis/yank/input

> <s_m_Source_File>
cAbl-ponatinib_nowat-posed-Erlotinib.mol2

> <i_m_Source_File_Index>
1

$$$$
~{N}-(3-chloro-4-fluoro-phenyl)-7-methoxy-6-(3-morpholinopropoxy)quinazolin-4-amine
                    3D
 Structure written by MMmdl.
 55 58  0  0  1  0            999 V2000
  -40.3609    0.9041  -63.9080 C   0  0  0  0  0  0
  -39.1812    1.4585  -64.4047 C   0  0  0  0  0  0
  -44.0231   -0.3219  -60.9272 C   0  0  0  0  0  0
  -46.2330    0.9064  -59.7764 C   0  0  0  0  0  0
  -41.1216    3.1036  -63.2595 C   0  0  0  0  0  0
  -45.0572    3.4982  -61.9572 C   0  0  0  0  0  0
  -44.3742    0.9915  -61.2849 C   0  0  0  0  0  0
  -45.4891    1.6235  -60.7103 C   0  0  0  0  0  0
  -41.3311    1.7267  -63.3355 C   0  0  0  0  0  0
  -44.7842   -1.0150  -59.9911 C   0  0  0  0  0  0
  -45.8903   -0.4000  -59.4154 C   0  0  0  0  0  0
  -38.9717    2.8355  -64.3287 C   0  0  0  0  0  0
  -39.9419    3.6581  -63.7561 C   0  0  0  0  0  0
  -43.6558    1.7395  -62.2135 C   0  0  0  0  0  0
  -42.0956   -6.1006  -56.6914 C   0  0  0  0  0  0
  -39.9595   -6.0029  -57.7986 C   0  0  0  0  0  0
  -41.8653   -7.5881  -56.4400 C   0  0  0  0  0  0
  -39.7800   -7.4929  -57.5221 C   0  0  0  0  0  0
  -46.2752   -0.9230  -57.1276 C   0  0  0  0  0  0
  -42.9413   -3.9611  -58.7944 C   0  0  0  0  0  0
  -41.5867   -4.2600  -58.1658 C   0  0  0  0  0  0
  -43.1455   -2.4782  -59.0803 C   0  0  0  0  0  0
  -45.8338    2.8792  -61.0449 N   0  0  0  0  0  0
  -43.9730    2.9980  -62.5715 N   0  0  0  0  0  0
  -41.3898   -5.6857  -57.9118 N   0  0  0  0  0  0
  -42.5180    1.1680  -62.8356 N   0  0  0  0  0  0
  -40.4685   -7.8632  -56.3270 O   0  0  0  0  0  0
  -46.6499   -1.0600  -58.4967 O   0  0  0  0  0  0
  -44.4362   -2.2952  -59.6470 O   0  0  0  0  0  0
  -37.8326    3.3536  -64.8099 F   0  0  0  0  0  0
  -39.6885    5.3580  -63.6577 Cl  0  0  0  0  0  0
  -40.5146   -0.1702  -63.9731 H   0  0  0  0  0  0
  -38.4260    0.8177  -64.8500 H   0  0  0  0  0  0
  -43.1616   -0.8185  -61.3673 H   0  0  0  0  0  0
  -47.1027    1.3714  -59.3146 H   0  0  0  0  0  0
  -41.8805    3.7416  -62.8118 H   0  0  0  0  0  0
  -45.3403    4.5096  -62.2224 H   0  0  0  0  0  0
  -43.1716   -5.9191  -56.7943 H   0  0  0  0  0  0
  -41.7342   -5.5251  -55.8292 H   0  0  0  0  0  0
  -39.5045   -5.4233  -56.9848 H   0  0  0  0  0  0
  -39.4389   -5.7493  -58.7291 H   0  0  0  0  0  0
  -42.3405   -7.8841  -55.4992 H   0  0  0  0  0  0
  -42.2966   -8.2042  -57.2381 H   0  0  0  0  0  0
  -40.1403   -8.1066  -58.3570 H   0  0  0  0  0  0
  -38.7190   -7.7204  -57.3785 H   0  0  0  0  0  0
  -46.9618   -1.4984  -56.5018 H   0  0  0  0  0  0
  -46.3048    0.1322  -56.8446 H   0  0  0  0  0  0
  -45.2599   -1.3049  -56.9970 H   0  0  0  0  0  0
  -43.0359   -4.5203  -59.7336 H   0  0  0  0  0  0
  -43.7515   -4.3214  -58.1480 H   0  0  0  0  0  0
  -40.7824   -3.9415  -58.8361 H   0  0  0  0  0  0
  -41.4689   -3.7312  -57.2145 H   0  0  0  0  0  0
  -43.0849   -1.8850  -58.1626 H   0  0  0  0  0  0
  -42.3986   -2.1119  -59.7919 H   0  0  0  0  0  0
  -42.5793    0.1617  -62.9349 H   0  0  0  0  0  0
  1  2  2  0  0  0
  1  9  1  0  0  0
  1 32  1  0  0  0
  2 12  1  0  0  0
  2 33  1  0  0  0
  3  7  2  0  0  0
  3 10  1  0  0  0
  3 34  1  0  0  0
  4  8  2  0  0  0
  4 11  1  0  0  0
  4 35  1  0  0  0
  5  9  2  0  0  0
  5 13  1  0  0  0
  5 36  1  0  0  0
  6 23  2  0  0  0
  6 24  1  0  0  0
  6 37  1  0  0  0
  7  8  1  0  0  0
  7 14  1  0  0  0
  8 23  1  0  0  0
  9 26  1  0  0  0
 10 11  2  0  0  0
 10 29  1  0  0  0
 11 28  1  0  0  0
 12 13  2  0  0  0
 12 30  1  0  0  0
 13 31  1  0  0  0
 14 24  2  0  0  0
 14 26  1  0  0  0
 15 17  1  0  0  0
 15 25  1  0  0  0
 15 38  1  0  0  0
 15 39  1  0  0  0
 16 18  1  0  0  0
 16 25  1  0  0  0
 16 40  1  0  0  0
 16 41  1  0  0  0
 17 27  1  0  0  0
 17 42  1  0  0  0
 17 43  1  0  0  0
 18 27  1  0  0  0
 18 44  1  0  0  0
 18 45  1  0  0  0
 19 28  1  0  0  0
 19 46  1  0  0  0
 19 47  1  0  0  0
 19 48  1  0  0  0
 20 21  1  0  0  0
 20 22  1  0  0  0
 20 49  1  0  0  0
 20 50  1  0  0  0
 21 25  1  0  0  0
 21 51  1  0  0  0
 21 52  1  0  0  0
 22 29  1  0  0  0
 22 53  1  0  0  0
 22 54  1  0  0  0
 26 55  1  0  0  0
M  END
> <s_m_entry_id>
59

> <s_m_entry_name>
cAbl-ponatinib_nowat-posed-Gefitinib.1

> <s_m_Source_Path>
/Users/albaness/github/kinase-resistance-mutants/sensitivity-analysis/yank/input

> <s_m_Source_File>
cAbl-ponatinib_nowat-posed-Gefitinib.mol2

> <i_m_Source_File_Index>
1

$$$$
4-[(4-methylpiperazin-1-yl)methyl]-~{N}-[4-methyl-3-[[4-(3-pyridyl)pyrimidin-2-yl]amino]phenyl]benzamide
                    3D
 Structure written by MMmdl.
 68 72  0  0  1  0            999 V2000
  -44.0416  -14.3480  -55.7862 C   0  0  0  0  0  0
  -43.7029  -13.1093  -55.2426 C   0  0  0  0  0  0
  -44.5718   -1.5587  -59.2559 C   0  0  0  0  0  0
  -42.4053   -0.9297  -60.1209 C   0  0  0  0  0  0
  -45.0993   -0.3378  -59.6720 C   0  0  0  0  0  0
  -42.9383    0.2974  -60.5330 C   0  0  0  0  0  0
  -38.7570   -5.3153  -57.0896 C   0  0  0  0  0  0
  -39.4451   -4.2559  -57.6878 C   0  0  0  0  0  0
  -42.8753  -10.3386  -54.2328 C   0  0  0  0  0  0
  -41.3826   -5.6500  -57.9145 C   0  0  0  0  0  0
  -43.8009  -14.5624  -57.1307 C   0  0  0  0  0  0
  -42.4424   -9.0497  -53.9759 C   0  0  0  0  0  0
  -42.9466  -12.4537  -57.3862 C   0  0  0  0  0  0
  -43.1371  -12.1077  -56.0397 C   0  0  0  0  0  0
  -43.2251   -1.8649  -59.4858 C   0  0  0  0  0  0
  -44.2938    0.5999  -60.3283 C   0  0  0  0  0  0
  -39.3744   -6.5572  -56.8902 C   0  0  0  0  0  0
  -40.7715   -4.4076  -58.0969 C   0  0  0  0  0  0
  -40.7032   -6.7255  -57.3112 C   0  0  0  0  0  0
  -42.7529  -10.7747  -55.5379 C   0  0  0  0  0  0
  -41.8452   -8.7068  -56.1586 C   0  0  0  0  0  0
  -42.7462   -3.2008  -59.0492 C   0  0  0  0  0  0
  -44.2570    2.0088  -64.5224 C   0  0  0  0  0  0
  -44.5004    4.2667  -63.7075 C   0  0  0  0  0  0
  -44.8086    1.4751  -63.1956 C   0  0  0  0  0  0
  -45.0236    3.7185  -62.3757 C   0  0  0  0  0  0
  -38.5971   -7.6755  -56.2563 C   0  0  0  0  0  0
  -44.2516    3.8563  -66.0696 C   0  0  0  0  0  0
  -44.9100    1.9071  -60.7823 C   0  0  0  0  0  0
  -43.2588  -13.6434  -57.9492 N   0  0  0  0  0  0
  -41.9247   -8.2153  -54.9067 N   0  0  0  0  0  0
  -42.2453   -9.9542  -56.4844 N   0  0  0  0  0  0
  -44.7918    3.3440  -64.8115 N   0  0  0  0  0  0
  -44.4547    2.3895  -62.0986 N   0  0  0  0  0  0
  -41.3716   -7.9539  -57.2377 N   0  0  0  0  0  0
  -41.4130   -3.2795  -58.6698 N   0  0  0  0  0  0
  -43.5722   -4.1091  -59.0393 O   0  0  0  0  0  0
  -44.4821  -15.1225  -55.1695 H   0  0  0  0  0  0
  -43.8955  -12.9511  -54.1851 H   0  0  0  0  0  0
  -45.2309   -2.2639  -58.7559 H   0  0  0  0  0  0
  -41.3568   -1.1307  -60.3202 H   0  0  0  0  0  0
  -46.1499   -0.1299  -59.4853 H   0  0  0  0  0  0
  -42.2844    1.0093  -61.0309 H   0  0  0  0  0  0
  -37.7245   -5.1617  -56.7860 H   0  0  0  0  0  0
  -38.9276   -3.3103  -57.8281 H   0  0  0  0  0  0
  -43.2786  -10.9469  -53.4332 H   0  0  0  0  0  0
  -42.4031   -5.8355  -58.2319 H   0  0  0  0  0  0
  -44.0450  -15.5084  -57.5999 H   0  0  0  0  0  0
  -42.5070   -8.6396  -52.9726 H   0  0  0  0  0  0
  -42.5111  -11.7553  -58.0974 H   0  0  0  0  0  0
  -43.1589    2.0256  -64.4837 H   0  0  0  0  0  0
  -44.5427    1.3126  -65.3201 H   0  0  0  0  0  0
  -44.9857    5.2317  -63.8975 H   0  0  0  0  0  0
  -43.4209    4.4528  -63.6267 H   0  0  0  0  0  0
  -45.8969    1.3433  -63.2638 H   0  0  0  0  0  0
  -44.3733    0.4828  -63.0351 H   0  0  0  0  0  0
  -44.7444    4.4201  -61.5808 H   0  0  0  0  0  0
  -46.1216    3.6742  -62.3989 H   0  0  0  0  0  0
  -39.0395   -7.9458  -55.2925 H   0  0  0  0  0  0
  -38.5810   -8.5521  -56.9115 H   0  0  0  0  0  0
  -37.5584   -7.3850  -56.0678 H   0  0  0  0  0  0
  -44.6982    4.8268  -66.3123 H   0  0  0  0  0  0
  -44.4951    3.1805  -66.8967 H   0  0  0  0  0  0
  -43.1626    3.9767  -66.0346 H   0  0  0  0  0  0
  -46.0047    1.8131  -60.7889 H   0  0  0  0  0  0
  -44.6602    2.6500  -60.0136 H   0  0  0  0  0  0
  -41.5115   -8.4037  -58.1362 H   0  0  0  0  0  0
  -40.8355   -2.4455  -58.7359 H   0  0  0  0  0  0
  1  2  2  0  0  0
  1 11  1  0  0  0
  1 38  1  0  0  0
  2 14  1  0  0  0
  2 39  1  0  0  0
  3  5  2  0  0  0
  3 15  1  0  0  0
  3 40  1  0  0  0
  4  6  1  0  0  0
  4 15  2  0  0  0
  4 41  1  0  0  0
  5 16  1  0  0  0
  5 42  1  0  0  0
  6 16  2  0  0  0
  6 43  1  0  0  0
  7  8  2  0  0  0
  7 17  1  0  0  0
  7 44  1  0  0  0
  8 18  1  0  0  0
  8 45  1  0  0  0
  9 12  2  0  0  0
  9 20  1  0  0  0
  9 46  1  0  0  0
 10 18  2  0  0  0
 10 19  1  0  0  0
 10 47  1  0  0  0
 11 30  2  0  0  0
 11 48  1  0  0  0
 12 31  1  0  0  0
 12 49  1  0  0  0
 13 14  2  0  0  0
 13 30  1  0  0  0
 13 50  1  0  0  0
 14 20  1  0  0  0
 15 22  1  0  0  0
 16 29  1  0  0  0
 17 19  2  0  0  0
 17 27  1  0  0  0
 18 36  1  0  0  0
 19 35  1  0  0  0
 20 32  2  0  0  0
 21 31  2  0  0  0
 21 32  1  0  0  0
 21 35  1  0  0  0
 22 36  1  0  0  0
 22 37  2  0  0  0
 23 25  1  0  0  0
 23 33  1  0  0  0
 23 51  1  0  0  0
 23 52  1  0  0  0
 24 26  1  0  0  0
 24 33  1  0  0  0
 24 53  1  0  0  0
 24 54  1  0  0  0
 25 34  1  0  0  0
 25 55  1  0  0  0
 25 56  1  0  0  0
 26 34  1  0  0  0
 26 57  1  0  0  0
 26 58  1  0  0  0
 27 59  1  0  0  0
 27 60  1  0  0  0
 27 61  1  0  0  0
 28 33  1  0  0  0
 28 62  1  0  0  0
 28 63  1  0  0  0
 28 64  1  0  0  0
 29 34  1  0  0  0
 29 65  1  0  0  0
 29 66  1  0  0  0
 35 67  1  0  0  0
 36 68  1  0  0  0
M  END
> <s_m_entry_id>
60

> <s_m_entry_name>
cAbl-ponatinib_nowat-posed-Imatinib.1

> <s_m_Source_Path>
/Users/albaness/github/kinase-resistance-mutants/sensitivity-analysis/yank/input

> <s_m_Source_File>
cAbl-ponatinib_nowat-posed-Imatinib.mol2

> <i_m_Source_File_Index>
1

$$$$
4-methyl-~{N}-[3-(4-methylimidazol-1-yl)-5-(trifluoromethyl)phenyl]-3-[[4-(3-pyridyl)pyrimidin-2-yl]amino]benzamide
                    3D
 Structure written by MMmdl.
 61 65  0  0  1  0            999 V2000
  -43.5891  -14.6110  -55.5227 C   0  0  0  0  0  0
  -43.1596  -13.3200  -55.2361 C   0  0  0  0  0  0
  -39.6601   -4.8145  -58.6483 C   0  0  0  0  0  0
  -38.6224   -5.7374  -58.5181 C   0  0  0  0  0  0
  -43.3947  -10.2394  -54.8911 C   0  0  0  0  0  0
  -41.2408   -6.4884  -57.9157 C   0  0  0  0  0  0
  -44.3232    0.0274  -60.4188 C   0  0  0  0  0  0
  -43.8940   -1.9595  -59.1131 C   0  0  0  0  0  0
  -42.2736   -1.2104  -60.7411 C   0  0  0  0  0  0
  -44.1364  -14.8498  -56.7730 C   0  0  0  0  0  0
  -42.8958   -8.9618  -54.7381 C   0  0  0  0  0  0
  -43.8491  -12.6628  -57.4153 C   0  0  0  0  0  0
  -41.5422    0.7342  -62.7535 C   0  0  0  0  0  0
  -43.4129    1.8611  -62.4589 C   0  0  0  0  0  0
  -43.2886  -12.3214  -56.1950 C   0  0  0  0  0  0
  -40.9693   -5.1900  -58.3470 C   0  0  0  0  0  0
  -38.8939   -7.0359  -58.0868 C   0  0  0  0  0  0
  -44.7202   -0.8846  -59.4410 C   0  0  0  0  0  0
  -43.0998   -0.1355  -61.0690 C   0  0  0  0  0  0
  -40.2031   -7.4114  -57.7856 C   0  0  0  0  0  0
  -42.6706   -2.1224  -59.7632 C   0  0  0  0  0  0
  -42.8525  -10.9718  -55.9274 C   0  0  0  0  0  0
  -41.6061    1.8284  -63.5836 C   0  0  0  0  0  0
  -41.4930   -9.2439  -56.5044 C   0  0  0  0  0  0
  -42.0512   -4.2276  -58.4833 C   0  0  0  0  0  0
  -37.7635   -8.0048  -57.9596 C   0  0  0  0  0  0
  -40.6166    2.2778  -64.5746 C   0  0  0  0  0  0
  -46.0278   -0.7100  -58.7454 C   0  0  0  0  0  0
  -44.2780  -13.9056  -57.7301 N   0  0  0  0  0  0
  -41.9413   -8.4301  -55.5296 N   0  0  0  0  0  0
  -42.7730    2.5260  -63.3951 N   0  0  0  0  0  0
  -41.8968  -10.5036  -56.7566 N   0  0  0  0  0  0
  -42.7063    0.7686  -62.0389 N   0  0  0  0  0  0
  -40.4963   -8.7224  -57.3496 N   0  0  0  0  0  0
  -41.8307   -3.2148  -59.4296 N   0  0  0  0  0  0
  -43.0711   -4.2909  -57.7830 O   0  0  0  0  0  0
  -46.7301    0.3835  -59.1660 F   0  0  0  0  0  0
  -46.8798   -1.7650  -58.9098 F   0  0  0  0  0  0
  -45.8888   -0.5587  -57.3960 F   0  0  0  0  0  0
  -43.4980  -15.4058  -54.7914 H   0  0  0  0  0  0
  -42.7266  -13.1068  -54.2619 H   0  0  0  0  0  0
  -39.4373   -3.8053  -58.9848 H   0  0  0  0  0  0
  -37.6057   -5.4344  -58.7542 H   0  0  0  0  0  0
  -44.1619  -10.6279  -54.2330 H   0  0  0  0  0  0
  -42.2623   -6.7814  -57.6824 H   0  0  0  0  0  0
  -44.9711    0.8643  -60.6714 H   0  0  0  0  0  0
  -44.2051   -2.6689  -58.3496 H   0  0  0  0  0  0
  -41.3188   -1.3399  -61.2472 H   0  0  0  0  0  0
  -44.4871  -15.8401  -57.0456 H   0  0  0  0  0  0
  -43.2610   -8.3108  -53.9510 H   0  0  0  0  0  0
  -43.9768  -11.9297  -58.2066 H   0  0  0  0  0  0
  -40.7937   -0.0350  -62.6165 H   0  0  0  0  0  0
  -44.3804    2.1240  -62.0513 H   0  0  0  0  0  0
  -37.3343   -7.9565  -56.9524 H   0  0  0  0  0  0
  -38.0994   -9.0316  -58.1483 H   0  0  0  0  0  0
  -36.9727   -7.7879  -58.6881 H   0  0  0  0  0  0
  -40.8061    1.8282  -65.5651 H   0  0  0  0  0  0
  -40.6212    3.3756  -64.7034 H   0  0  0  0  0  0
  -39.5830    2.0141  -64.2840 H   0  0  0  0  0  0
  -39.8620   -9.4231  -57.7195 H   0  0  0  0  0  0
  -40.9545   -3.2719  -59.9426 H   0  0  0  0  0  0
  1  2  2  0  0  0
  1 10  1  0  0  0
  1 40  1  0  0  0
  2 15  1  0  0  0
  2 41  1  0  0  0
  3  4  2  0  0  0
  3 16  1  0  0  0
  3 42  1  0  0  0
  4 17  1  0  0  0
  4 43  1  0  0  0
  5 11  2  0  0  0
  5 22  1  0  0  0
  5 44  1  0  0  0
  6 16  2  0  0  0
  6 20  1  0  0  0
  6 45  1  0  0  0
  7 18  2  0  0  0
  7 19  1  0  0  0
  7 46  1  0  0  0
  8 18  1  0  0  0
  8 21  2  0  0  0
  8 47  1  0  0  0
  9 19  2  0  0  0
  9 21  1  0  0  0
  9 48  1  0  0  0
 10 29  2  0  0  0
 10 49  1  0  0  0
 11 30  1  0  0  0
 11 50  1  0  0  0
 12 15  2  0  0  0
 12 29  1  0  0  0
 12 51  1  0  0  0
 13 23  2  0  0  0
 13 33  1  0  0  0
 13 52  1  0  0  0
 14 31  2  0  0  0
 14 33  1  0  0  0
 14 53  1  0  0  0
 15 22  1  0  0  0
 16 25  1  0  0  0
 17 20  2  0  0  0
 17 26  1  0  0  0
 18 28  1  0  0  0
 19 33  1  0  0  0
 20 34  1  0  0  0
 21 35  1  0  0  0
 22 32  2  0  0  0
 23 27  1  0  0  0
 23 31  1  0  0  0
 24 30  2  0  0  0
 24 32  1  0  0  0
 24 34  1  0  0  0
 25 35  1  0  0  0
 25 36  2  0  0  0
 26 54  1  0  0  0
 26 55  1  0  0  0
 26 56  1  0  0  0
 27 57  1  0  0  0
 27 58  1  0  0  0
 27 59  1  0  0  0
 28 37  1  0  0  0
 28 38  1  0  0  0
 28 39  1  0  0  0
 34 60  1  0  0  0
 35 61  1  0  0  0
M  END
> <s_m_entry_id>
61

> <s_m_entry_name>
cAbl-ponatinib_nowat-posed-Nilotinib.1

> <s_m_Source_Path>
/Users/albaness/github/kinase-resistance-mutants/sensitivity-analysis/yank/input

> <s_m_Source_File>
cAbl-ponatinib_nowat-posed-Nilotinib.mol2

> <i_m_Source_File_Index>
1

$$$$
3-(2-imidazo[1,2-b]pyridazin-3-ylethynyl)-4-methyl-~{N}-[4-[(4-methylpiperazin-1-yl)methyl]-3-(trifluoromethyl)phenyl]benzamide
                    3D
 Structure written by MMmdl.
 66 70  0  0  1  0            999 V2000
  -41.4196   -8.3099  -56.7288 C   0  0  0  0  0  0
  -41.8654   -9.4197  -56.6286 C   0  0  0  0  0  0
  -39.9678   -4.5171  -57.8944 C   0  0  0  0  0  0
  -39.1021   -5.4279  -57.2780 C   0  0  0  0  0  0
  -42.7797    0.5605  -60.6147 C   0  0  0  0  0  0
  -42.0342   -0.5449  -60.2056 C   0  0  0  0  0  0
  -41.7592   -6.1130  -57.6934 C   0  0  0  0  0  0
  -44.0140   -1.4982  -59.2282 C   0  0  0  0  0  0
  -42.3486  -11.5252  -57.8796 C   0  0  0  0  0  0
  -40.8919   -7.0265  -57.0799 C   0  0  0  0  0  0
  -42.3597  -10.7423  -56.7477 C   0  0  0  0  0  0
  -41.3080   -4.8503  -58.1027 C   0  0  0  0  0  0
  -39.5504   -6.6875  -56.8579 C   0  0  0  0  0  0
  -44.1596    0.6529  -60.3514 C   0  0  0  0  0  0
  -44.7772   -0.3841  -59.6238 C   0  0  0  0  0  0
  -42.6495   -1.5927  -59.5231 C   0  0  0  0  0  0
  -43.2657  -12.7271  -56.3768 C   0  0  0  0  0  0
  -43.8928  -13.7043  -55.5726 C   0  0  0  0  0  0
  -44.1571  -13.4318  -54.2906 C   0  0  0  0  0  0
  -43.7611  -12.0916  -53.7956 C   0  0  0  0  0  0
  -42.3051   -3.9317  -58.7282 C   0  0  0  0  0  0
  -44.2420    2.0340  -64.5552 C   0  0  0  0  0  0
  -44.5575    4.2794  -63.7236 C   0  0  0  0  0  0
  -44.8049    1.4767  -63.2443 C   0  0  0  0  0  0
  -45.0954    3.7077  -62.4068 C   0  0  0  0  0  0
  -38.5874   -7.6361  -56.2031 C   0  0  0  0  0  0
  -44.2435    3.8958  -66.0826 C   0  0  0  0  0  0
  -44.9362    1.8698  -60.8309 C   0  0  0  0  0  0
  -46.2370   -0.3458  -59.2498 C   0  0  0  0  0  0
  -42.9090  -12.7505  -57.6440 N   0  0  0  0  0  0
  -43.1829  -11.1574  -54.4846 N   0  0  0  0  0  0
  -42.9504  -11.5154  -55.7805 N   0  0  0  0  0  0
  -44.8013    3.3598  -64.8423 N   0  0  0  0  0  0
  -44.4962    2.3942  -62.1368 N   0  0  0  0  0  0
  -41.8400   -2.6914  -59.1450 N   0  0  0  0  0  0
  -43.4609   -4.3321  -58.8497 O   0  0  0  0  0  0
  -46.6024   -1.3093  -58.3565 F   0  0  0  0  0  0
  -46.6020    0.8314  -58.6682 F   0  0  0  0  0  0
  -47.0577   -0.5116  -60.3223 F   0  0  0  0  0  0
  -39.5520   -3.5605  -58.1913 H   0  0  0  0  0  0
  -38.0639   -5.1394  -57.1295 H   0  0  0  0  0  0
  -42.2654    1.3524  -61.1543 H   0  0  0  0  0  0
  -40.9726   -0.5784  -60.4388 H   0  0  0  0  0  0
  -42.7966   -6.4049  -57.8508 H   0  0  0  0  0  0
  -44.5143   -2.2836  -58.6708 H   0  0  0  0  0  0
  -41.9636  -11.2631  -58.8549 H   0  0  0  0  0  0
  -44.1524  -14.6632  -56.0065 H   0  0  0  0  0  0
  -44.6347  -14.1330  -53.6211 H   0  0  0  0  0  0
  -43.9941  -11.9005  -52.7356 H   0  0  0  0  0  0
  -43.1454    2.0745  -64.4960 H   0  0  0  0  0  0
  -44.4979    1.3392  -65.3641 H   0  0  0  0  0  0
  -45.0596    5.2352  -63.9160 H   0  0  0  0  0  0
  -43.4843    4.4894  -63.6182 H   0  0  0  0  0  0
  -45.8881    1.3183  -63.3342 H   0  0  0  0  0  0
  -44.3488    0.4944  -63.0786 H   0  0  0  0  0  0
  -44.8438    4.4075  -61.6011 H   0  0  0  0  0  0
  -46.1909    3.6369  -62.4480 H   0  0  0  0  0  0
  -38.9958   -8.0013  -55.2547 H   0  0  0  0  0  0
  -38.3804   -8.4838  -56.8634 H   0  0  0  0  0  0
  -37.6369   -7.1433  -55.9727 H   0  0  0  0  0  0
  -44.7041    4.8595  -66.3257 H   0  0  0  0  0  0
  -44.4551    3.2236  -66.9214 H   0  0  0  0  0  0
  -43.1582    4.0376  -66.0221 H   0  0  0  0  0  0
  -46.0087    1.6528  -60.8864 H   0  0  0  0  0  0
  -44.8022    2.6380  -60.0584 H   0  0  0  0  0  0
  -40.8416   -2.5433  -59.2507 H   0  0  0  0  0  0
  1  2  3  0  0  0
  1 10  1  0  0  0
  2 11  1  0  0  0
  3  4  2  0  0  0
  3 12  1  0  0  0
  3 40  1  0  0  0
  4 13  1  0  0  0
  4 41  1  0  0  0
  5  6  2  0  0  0
  5 14  1  0  0  0
  5 42  1  0  0  0
  6 16  1  0  0  0
  6 43  1  0  0  0
  7 10  1  0  0  0
  7 12  2  0  0  0
  7 44  1  0  0  0
  8 15  1  0  0  0
  8 16  2  0  0  0
  8 45  1  0  0  0
  9 11  2  0  0  0
  9 30  1  0  0  0
  9 46  1  0  0  0
 10 13  2  0  0  0
 11 32  1  0  0  0
 12 21  1  0  0  0
 13 26  1  0  0  0
 14 15  2  0  0  0
 14 28  1  0  0  0
 15 29  1  0  0  0
 16 35  1  0  0  0
 17 18  1  0  0  0
 17 30  2  0  0  0
 17 32  1  0  0  0
 18 19  2  0  0  0
 18 47  1  0  0  0
 19 20  1  0  0  0
 19 48  1  0  0  0
 20 31  2  0  0  0
 20 49  1  0  0  0
 21 35  1  0  0  0
 21 36  2  0  0  0
 22 24  1  0  0  0
 22 33  1  0  0  0
 22 50  1  0  0  0
 22 51  1  0  0  0
 23 25  1  0  0  0
 23 33  1  0  0  0
 23 52  1  0  0  0
 23 53  1  0  0  0
 24 34  1  0  0  0
 24 54  1  0  0  0
 24 55  1  0  0  0
 25 34  1  0  0  0
 25 56  1  0  0  0
 25 57  1  0  0  0
 26 58  1  0  0  0
 26 59  1  0  0  0
 26 60  1  0  0  0
 27 33  1  0  0  0
 27 61  1  0  0  0
 27 62  1  0  0  0
 27 63  1  0  0  0
 28 34  1  0  0  0
 28 64  1  0  0  0
 28 65  1  0  0  0
 29 37  1  0  0  0
 29 38  1  0  0  0
 29 39  1  0  0  0
 31 32  1  0  0  0
 35 66  1  0  0  0
M  END
> <s_m_entry_id>
62

> <s_m_entry_name>
cAbl-ponatinib_nowat-posed-Ponatinib.1

> <s_m_Source_Path>
/Users/albaness/github/kinase-resistance-mutants/sensitivity-analysis/yank/input

> <s_m_Source_File>
cAbl-ponatinib_nowat-posed-Ponatinib.mol2

> <i_m_Source_File_Index>
1

$$$$
