~{N}-methyl-2-[[3-[(~{E})-2-(2-pyridyl)vinyl]-1~{H}-indazol-6-yl]sulfanyl]benzamide
                    3D
 Structure written by MMmdl.
 46 49  0  0  1  0            999 V2000
  -40.4767  -10.2670  -55.5567 C   0  0  0  0  0  0
  -41.3312  -10.5022  -54.4853 C   0  0  0  0  0  0
  -39.7349  -17.9342  -47.3816 C   0  0  0  0  0  0
  -40.1619  -18.2348  -46.0955 C   0  0  0  0  0  0
  -39.8417  -11.4934  -49.4430 C   0  0  0  0  0  0
  -39.4562   -9.3269  -55.4367 C   0  0  0  0  0  0
  -41.1628   -9.8036  -53.2879 C   0  0  0  0  0  0
  -39.5956  -10.5083  -50.4114 C   0  0  0  0  0  0
  -39.8380  -16.6299  -47.8580 C   0  0  0  0  0  0
  -41.0687   -8.9531  -49.2758 C   0  0  0  0  0  0
  -40.6778  -17.2043  -45.3309 C   0  0  0  0  0  0
  -40.7189  -11.2174  -48.3745 C   0  0  0  0  0  0
  -39.2813   -8.6223  -54.2355 C   0  0  0  0  0  0
  -41.2951   -9.9514  -48.3237 C   0  0  0  0  0  0
  -40.2100   -9.2542  -50.3409 C   0  0  0  0  0  0
  -40.1317   -8.8602  -53.1371 C   0  0  0  0  0  0
  -40.3722  -15.6529  -47.0202 C   0  0  0  0  0  0
  -41.2446  -11.9023  -47.2292 C   0  0  0  0  0  0
  -40.5031  -14.2691  -47.5122 C   0  0  0  0  0  0
  -41.0137  -13.2544  -46.7962 C   0  0  0  0  0  0
  -38.1977   -7.6110  -54.1888 C   0  0  0  0  0  0
  -35.8112   -7.1846  -54.6595 C   0  0  0  0  0  0
  -40.7927  -15.9271  -45.7605 N   0  0  0  0  0  0
  -42.0603  -11.1005  -46.5245 N   0  0  0  0  0  0
  -42.0690   -9.9494  -47.2014 N   0  0  0  0  0  0
  -36.9500   -8.0690  -54.5757 N   0  0  0  0  0  0
  -38.4611   -6.4617  -53.8494 O   0  0  0  0  0  0
  -39.9321   -7.9924  -51.5770 S   0  0  0  0  0  0
  -40.6094  -10.8098  -56.4877 H   0  0  0  0  0  0
  -42.1319  -11.2301  -54.5792 H   0  0  0  0  0  0
  -39.3237  -18.7138  -48.0159 H   0  0  0  0  0  0
  -40.0938  -19.2432  -45.7052 H   0  0  0  0  0  0
  -39.3456  -12.4525  -49.5451 H   0  0  0  0  0  0
  -38.8083   -9.1477  -56.2911 H   0  0  0  0  0  0
  -41.8547  -10.0156  -52.4759 H   0  0  0  0  0  0
  -38.9172  -10.7508  -51.2268 H   0  0  0  0  0  0
  -39.5062  -16.3994  -48.8660 H   0  0  0  0  0  0
  -41.5540   -7.9858  -49.1855 H   0  0  0  0  0  0
  -41.0264  -17.3831  -44.3192 H   0  0  0  0  0  0
  -40.1856  -14.1210  -48.5370 H   0  0  0  0  0  0
  -41.3551  -13.4648  -45.7837 H   0  0  0  0  0  0
  -35.8685   -6.6378  -55.6045 H   0  0  0  0  0  0
  -34.8973   -7.7810  -54.6303 H   0  0  0  0  0  0
  -35.8248   -6.4739  -53.8288 H   0  0  0  0  0  0
  -42.6338   -9.1895  -46.8436 H   0  0  0  0  0  0
  -36.8230   -9.0392  -54.8483 H   0  0  0  0  0  0
  1  2  2  0  0  0
  1  6  1  0  0  0
  1 29  1  0  0  0
  2  7  1  0  0  0
  2 30  1  0  0  0
  3  4  2  0  0  0
  3  9  1  0  0  0
  3 31  1  0  0  0
  4 11  1  0  0  0
  4 32  1  0  0  0
  5  8  2  0  0  0
  5 12  1  0  0  0
  5 33  1  0  0  0
  6 13  2  0  0  0
  6 34  1  0  0  0
  7 16  2  0  0  0
  7 35  1  0  0  0
  8 15  1  0  0  0
  8 36  1  0  0  0
  9 17  2  0  0  0
  9 37  1  0  0  0
 10 14  1  0  0  0
 10 15  2  0  0  0
 10 38  1  0  0  0
 11 23  2  0  0  0
 11 39  1  0  0  0
 12 14  2  0  0  0
 12 18  1  0  0  0
 13 16  1  0  0  0
 13 21  1  0  0  0
 14 25  1  0  0  0
 15 28  1  0  0  0
 16 28  1  0  0  0
 17 19  1  0  0  0
 17 23  1  0  0  0
 18 20  1  0  0  0
 18 24  2  0  0  0
 19 20  2  0  0  0
 19 40  1  0  0  0
 20 41  1  0  0  0
 21 26  1  0  0  0
 21 27  2  0  0  0
 22 26  1  0  0  0
 22 42  1  0  0  0
 22 43  1  0  0  0
 22 44  1  0  0  0
 24 25  1  0  0  0
 25 45  1  0  0  0
 26 46  1  0  0  0
M  END
> <s_m_entry_id>
1

> <s_m_entry_name>
cAbl-axitinib_nowat-posed-Axitinib.1

> <s_m_Source_Path>
/Users/albaness/github/kinase-resistance-mutants/sensitivity-analysis/yank/input

> <s_m_Source_File>
cAbl-axitinib_nowat-posed-Axitinib.mol2

> <i_m_Source_File_Index>
1

$$$$
4-(2,4-dichloro-5-methoxy-anilino)-6-methoxy-7-[3-(4-methylpiperazin-1-yl)propoxy]quinoline-3-carbonitrile
                    3D
 Structure written by MMmdl.
 65 68  0  0  1  0            999 V2000
  -41.3010   -6.0007  -53.0413 C   0  0  0  0  0  0
  -40.0076  -10.3457  -51.1262 C   0  0  0  0  0  0
  -40.6504   -9.3462  -48.6183 C   0  0  0  0  0  0
  -38.0101   -8.0446  -53.6046 C   0  0  0  0  0  0
  -37.9053   -9.1121  -56.1799 C   0  0  0  0  0  0
  -41.4102   -6.4834  -50.6614 C   0  0  0  0  0  0
  -41.1152   -6.8983  -51.9442 C   0  0  0  0  0  0
  -40.4824   -9.0297  -50.9947 C   0  0  0  0  0  0
  -40.8111   -8.5146  -49.7232 C   0  0  0  0  0  0
  -39.1479   -8.6239  -54.1662 C   0  0  0  0  0  0
  -40.6442   -8.1931  -52.1073 C   0  0  0  0  0  0
  -39.8563  -11.1553  -50.0042 C   0  0  0  0  0  0
  -40.1783  -10.6546  -48.7488 C   0  0  0  0  0  0
  -36.8199   -7.9989  -54.3306 C   0  0  0  0  0  0
  -39.0955   -9.1577  -55.4538 C   0  0  0  0  0  0
  -36.7676   -8.5327  -55.6182 C   0  0  0  0  0  0
  -40.4097  -17.5094  -47.3257 C   0  0  0  0  0  0
  -39.9875  -17.5015  -44.9513 C   0  0  0  0  0  0
  -40.1779  -15.9952  -47.3717 C   0  0  0  0  0  0
  -39.7545  -15.9875  -44.9981 C   0  0  0  0  0  0
  -39.8672  -19.5668  -46.1906 C   0  0  0  0  0  0
  -37.9830  -12.6185  -50.0775 C   0  0  0  0  0  0
  -35.5394   -6.0284  -53.9656 C   0  0  0  0  0  0
  -41.4473  -13.1832  -46.8003 C   0  0  0  0  0  0
  -40.3008  -13.9305  -46.1319 C   0  0  0  0  0  0
  -41.2121  -11.6790  -46.8680 C   0  0  0  0  0  0
  -41.4519   -5.2721  -53.9319 N   0  0  0  0  0  0
  -41.2684   -7.2586  -49.5619 N   0  0  0  0  0  0
  -39.6419  -18.1234  -46.2355 N   0  0  0  0  0  0
  -40.5241  -15.3742  -46.0874 N   0  0  0  0  0  0
  -40.3299   -8.6548  -53.4116 N   0  0  0  0  0  0
  -39.3951  -12.4280  -50.1484 O   0  0  0  0  0  0
  -35.7235   -7.4268  -53.7571 O   0  0  0  0  0  0
  -40.0375  -11.4336  -47.6300 O   0  0  0  0  0  0
  -40.4813   -9.8839  -56.1864 Cl  0  0  0  0  0  0
  -35.3087   -8.4896  -56.5381 Cl  0  0  0  0  0  0
  -39.7490  -10.7594  -52.0986 H   0  0  0  0  0  0
  -40.8974   -8.9712  -47.6260 H   0  0  0  0  0  0
  -38.0456   -7.6269  -52.6008 H   0  0  0  0  0  0
  -37.8637   -9.5282  -57.1844 H   0  0  0  0  0  0
  -41.7836   -5.4837  -50.4573 H   0  0  0  0  0  0
  -41.4829  -17.7151  -47.2132 H   0  0  0  0  0  0
  -40.0952  -17.9356  -48.2861 H   0  0  0  0  0  0
  -39.3608  -17.9221  -44.1555 H   0  0  0  0  0  0
  -41.0336  -17.7061  -44.6857 H   0  0  0  0  0  0
  -39.1318  -15.7897  -47.6372 H   0  0  0  0  0  0
  -40.8047  -15.5747  -48.1675 H   0  0  0  0  0  0
  -40.0678  -15.5610  -44.0374 H   0  0  0  0  0  0
  -38.6814  -15.7822  -45.1121 H   0  0  0  0  0  0
  -39.2906  -20.0119  -45.3755 H   0  0  0  0  0  0
  -39.5577  -20.0271  -47.1328 H   0  0  0  0  0  0
  -40.9274  -19.7790  -46.0285 H   0  0  0  0  0  0
  -37.7505  -13.6782  -50.2080 H   0  0  0  0  0  0
  -37.6157  -12.2706  -49.1087 H   0  0  0  0  0  0
  -37.5061  -12.0424  -50.8740 H   0  0  0  0  0  0
  -34.6303   -5.6999  -53.4559 H   0  0  0  0  0  0
  -36.4042   -5.4843  -53.5778 H   0  0  0  0  0  0
  -35.4425   -5.8385  -55.0371 H   0  0  0  0  0  0
  -41.5850  -13.5674  -47.8187 H   0  0  0  0  0  0
  -42.3906  -13.3802  -46.2755 H   0  0  0  0  0  0
  -39.3718  -13.7685  -46.6873 H   0  0  0  0  0  0
  -40.1504  -13.5832  -45.1048 H   0  0  0  0  0  0
  -42.0499  -11.1677  -47.3521 H   0  0  0  0  0  0
  -41.0698  -11.2613  -45.8662 H   0  0  0  0  0  0
  -41.1150   -9.0893  -53.8804 H   0  0  0  0  0  0
  1  7  1  0  0  0
  1 27  3  0  0  0
  2  8  2  0  0  0
  2 12  1  0  0  0
  2 37  1  0  0  0
  3  9  2  0  0  0
  3 13  1  0  0  0
  3 38  1  0  0  0
  4 10  2  0  0  0
  4 14  1  0  0  0
  4 39  1  0  0  0
  5 15  2  0  0  0
  5 16  1  0  0  0
  5 40  1  0  0  0
  6  7  1  0  0  0
  6 28  2  0  0  0
  6 41  1  0  0  0
  7 11  2  0  0  0
  8  9  1  0  0  0
  8 11  1  0  0  0
  9 28  1  0  0  0
 10 15  1  0  0  0
 10 31  1  0  0  0
 11 31  1  0  0  0
 12 13  2  0  0  0
 12 32  1  0  0  0
 13 34  1  0  0  0
 14 16  2  0  0  0
 14 33  1  0  0  0
 15 35  1  0  0  0
 16 36  1  0  0  0
 17 19  1  0  0  0
 17 29  1  0  0  0
 17 42  1  0  0  0
 17 43  1  0  0  0
 18 20  1  0  0  0
 18 29  1  0  0  0
 18 44  1  0  0  0
 18 45  1  0  0  0
 19 30  1  0  0  0
 19 46  1  0  0  0
 19 47  1  0  0  0
 20 30  1  0  0  0
 20 48  1  0  0  0
 20 49  1  0  0  0
 21 29  1  0  0  0
 21 50  1  0  0  0
 21 51  1  0  0  0
 21 52  1  0  0  0
 22 32  1  0  0  0
 22 53  1  0  0  0
 22 54  1  0  0  0
 22 55  1  0  0  0
 23 33  1  0  0  0
 23 56  1  0  0  0
 23 57  1  0  0  0
 23 58  1  0  0  0
 24 25  1  0  0  0
 24 26  1  0  0  0
 24 59  1  0  0  0
 24 60  1  0  0  0
 25 30  1  0  0  0
 25 61  1  0  0  0
 25 62  1  0  0  0
 26 34  1  0  0  0
 26 63  1  0  0  0
 26 64  1  0  0  0
 31 65  1  0  0  0
M  END
> <s_m_entry_id>
2

> <s_m_entry_name>
cAbl-axitinib_nowat-posed-Bosutinib.1

> <s_m_Source_Path>
/Users/albaness/github/kinase-resistance-mutants/sensitivity-analysis/yank/input

> <s_m_Source_File>
cAbl-axitinib_nowat-posed-Bosutinib.mol2

> <i_m_Source_File_Index>
1

$$$$
~{N}-(2-chloro-6-methyl-phenyl)-2-[[6-[4-(2-hydroxyethyl)piperazin-1-yl]-2-methyl-pyrimidin-4-yl]amino]thiazole-5-carboxamide
                    3D
 Structure written by MMmdl.
 59 62  0  0  1  0            999 V2000
  -34.6654   -6.5642  -57.3809 C   0  0  0  0  0  0
  -34.2036   -6.5148  -56.0656 C   0  0  0  0  0  0
  -35.9380   -7.0653  -57.6549 C   0  0  0  0  0  0
  -40.2998  -12.3265  -48.3771 C   0  0  0  0  0  0
  -39.7779   -7.6417  -51.6964 C   0  0  0  0  0  0
  -35.0143   -6.9666  -55.0244 C   0  0  0  0  0  0
  -36.2869   -7.4679  -55.2984 C   0  0  0  0  0  0
  -36.7487   -7.5172  -56.6137 C   0  0  0  0  0  0
  -38.9221   -8.1234  -52.6648 C   0  0  0  0  0  0
  -41.0271  -12.5261  -47.2214 C   0  0  0  0  0  0
  -40.3937  -11.0663  -48.9314 C   0  0  0  0  0  0
  -41.7997  -10.3890  -47.2786 C   0  0  0  0  0  0
  -39.5305   -9.6825  -50.9323 C   0  0  0  0  0  0
  -38.3741   -7.4770  -53.8093 C   0  0  0  0  0  0
  -40.1356  -14.8385  -47.2395 C   0  0  0  0  0  0
  -42.1259  -14.2618  -45.8705 C   0  0  0  0  0  0
  -39.7946  -15.9222  -46.2136 C   0  0  0  0  0  0
  -41.7201  -15.3631  -44.8883 C   0  0  0  0  0  0
  -34.4902   -6.8994  -53.6263 C   0  0  0  0  0  0
  -42.6326   -9.3131  -46.6687 C   0  0  0  0  0  0
  -40.6744  -17.5182  -44.6392 C   0  0  0  0  0  0
  -40.4135  -18.8024  -45.4050 C   0  0  0  0  0  0
  -40.1282   -8.5345  -50.7024 N   0  0  0  0  0  0
  -41.7905  -11.5760  -46.6427 N   0  0  0  0  0  0
  -41.1372  -10.0700  -48.4069 N   0  0  0  0  0  0
  -40.9590  -13.7913  -46.6275 N   0  0  0  0  0  0
  -41.0088  -16.4472  -45.5771 N   0  0  0  0  0  0
  -37.0989   -7.9274  -54.2310 N   0  0  0  0  0  0
  -39.6621  -10.8198  -50.1190 N   0  0  0  0  0  0
  -38.9548   -6.5368  -54.4043 O   0  0  0  0  0  0
  -41.5899  -19.1800  -46.1087 O   0  0  0  0  0  0
  -38.5321   -9.7588  -52.3260 S   0  0  0  0  0  0
  -38.3169   -8.1305  -57.0020 Cl  0  0  0  0  0  0
  -34.0343   -6.2114  -58.1915 H   0  0  0  0  0  0
  -33.2100   -6.1234  -55.8629 H   0  0  0  0  0  0
  -36.2815   -7.0989  -58.6858 H   0  0  0  0  0  0
  -39.6942  -13.1086  -48.8205 H   0  0  0  0  0  0
  -40.1816   -6.6380  -51.6659 H   0  0  0  0  0  0
  -39.2019  -14.4092  -47.6237 H   0  0  0  0  0  0
  -40.6710  -15.2838  -48.0886 H   0  0  0  0  0  0
  -42.8887  -14.6416  -46.5631 H   0  0  0  0  0  0
  -42.5711  -13.4317  -45.3080 H   0  0  0  0  0  0
  -39.2632  -16.7293  -46.7326 H   0  0  0  0  0  0
  -39.1087  -15.5116  -45.4601 H   0  0  0  0  0  0
  -41.0954  -14.9347  -44.0928 H   0  0  0  0  0  0
  -42.6299  -15.7515  -44.4147 H   0  0  0  0  0  0
  -34.7520   -5.9384  -53.1695 H   0  0  0  0  0  0
  -34.9054   -7.7053  -53.0094 H   0  0  0  0  0  0
  -33.3994   -7.0111  -53.6073 H   0  0  0  0  0  0
  -42.0401   -8.7309  -45.9522 H   0  0  0  0  0  0
  -43.0233   -8.6293  -47.4336 H   0  0  0  0  0  0
  -43.5013   -9.7310  -46.1432 H   0  0  0  0  0  0
  -41.5090  -17.6354  -43.9407 H   0  0  0  0  0  0
  -39.7811  -17.2182  -44.0831 H   0  0  0  0  0  0
  -40.1624  -19.6092  -44.7093 H   0  0  0  0  0  0
  -39.5961  -18.6836  -46.1237 H   0  0  0  0  0  0
  -36.7083   -8.6933  -53.6878 H   0  0  0  0  0  0
  -39.1344  -11.6237  -50.4385 H   0  0  0  0  0  0
  -41.3809  -20.0011  -46.5823 H   0  0  0  0  0  0
  1  2  2  0  0  0
  1  3  1  0  0  0
  1 34  1  0  0  0
  2  6  1  0  0  0
  2 35  1  0  0  0
  3  8  2  0  0  0
  3 36  1  0  0  0
  4 10  2  0  0  0
  4 11  1  0  0  0
  4 37  1  0  0  0
  5  9  2  0  0  0
  5 23  1  0  0  0
  5 38  1  0  0  0
  6  7  2  0  0  0
  6 19  1  0  0  0
  7  8  1  0  0  0
  7 28  1  0  0  0
  8 33  1  0  0  0
  9 14  1  0  0  0
  9 32  1  0  0  0
 10 24  1  0  0  0
 10 26  1  0  0  0
 11 25  2  0  0  0
 11 29  1  0  0  0
 12 20  1  0  0  0
 12 24  2  0  0  0
 12 25  1  0  0  0
 13 23  2  0  0  0
 13 29  1  0  0  0
 13 32  1  0  0  0
 14 28  1  0  0  0
 14 30  2  0  0  0
 15 17  1  0  0  0
 15 26  1  0  0  0
 15 39  1  0  0  0
 15 40  1  0  0  0
 16 18  1  0  0  0
 16 26  1  0  0  0
 16 41  1  0  0  0
 16 42  1  0  0  0
 17 27  1  0  0  0
 17 43  1  0  0  0
 17 44  1  0  0  0
 18 27  1  0  0  0
 18 45  1  0  0  0
 18 46  1  0  0  0
 19 47  1  0  0  0
 19 48  1  0  0  0
 19 49  1  0  0  0
 20 50  1  0  0  0
 20 51  1  0  0  0
 20 52  1  0  0  0
 21 22  1  0  0  0
 21 27  1  0  0  0
 21 53  1  0  0  0
 21 54  1  0  0  0
 22 31  1  0  0  0
 22 55  1  0  0  0
 22 56  1  0  0  0
 28 57  1  0  0  0
 29 58  1  0  0  0
 31 59  1  0  0  0
M  END
> <s_m_entry_id>
3

> <s_m_entry_name>
cAbl-axitinib_nowat-posed-Dasatinib.1

> <s_m_Source_Path>
/Users/albaness/github/kinase-resistance-mutants/sensitivity-analysis/yank/input

> <s_m_Source_File>
cAbl-axitinib_nowat-posed-Dasatinib.mol2

> <i_m_Source_File_Index>
1

$$$$
~{N}-(3-ethynylphenyl)-6,7-bis(2-methoxyethoxy)quinazolin-4-amine
                    3D
 Structure written by MMmdl.
 52 54  0  0  1  0            999 V2000
  -37.3787   -7.9829  -54.1286 C   0  0  0  0  0  0
  -38.2851   -8.4718  -53.5113 C   0  0  0  0  0  0
  -41.7289   -9.4676  -52.5086 C   0  0  0  0  0  0
  -40.6756   -8.8994  -53.2250 C   0  0  0  0  0  0
  -41.4704  -10.1905  -51.3439 C   0  0  0  0  0  0
  -39.1052   -9.7770  -51.6123 C   0  0  0  0  0  0
  -39.6098  -13.4878  -48.2367 C   0  0  0  0  0  0
  -41.1427  -13.7858  -45.9394 C   0  0  0  0  0  0
  -42.1868  -10.5415  -47.0531 C   0  0  0  0  0  0
  -39.3638   -9.0541  -52.7769 C   0  0  0  0  0  0
  -40.4942  -12.4719  -47.8344 C   0  0  0  0  0  0
  -41.2746  -12.6105  -46.6749 C   0  0  0  0  0  0
  -40.1585  -10.3452  -50.8958 C   0  0  0  0  0  0
  -39.4979  -14.6518  -47.4827 C   0  0  0  0  0  0
  -40.2655  -14.8007  -46.3329 C   0  0  0  0  0  0
  -40.6532  -11.2842  -48.5427 C   0  0  0  0  0  0
  -38.9115  -19.3947  -49.4928 C   0  0  0  0  0  0
  -41.3713  -19.8332  -46.0040 C   0  0  0  0  0  0
  -38.3994  -15.7578  -49.2787 C   0  0  0  0  0  0
  -41.3406  -16.3343  -44.8673 C   0  0  0  0  0  0
  -38.0685  -17.2035  -49.5957 C   0  0  0  0  0  0
  -41.3522  -17.8462  -44.7493 C   0  0  0  0  0  0
  -42.1234  -11.6452  -46.2808 N   0  0  0  0  0  0
  -41.4935  -10.2979  -48.1768 N   0  0  0  0  0  0
  -39.8989  -11.0728  -49.7237 N   0  0  0  0  0  0
  -38.6396  -15.6316  -47.8781 O   0  0  0  0  0  0
  -40.1723  -15.9321  -45.5794 O   0  0  0  0  0  0
  -39.1581  -18.0269  -49.1982 O   0  0  0  0  0  0
  -41.3816  -18.4134  -46.0535 O   0  0  0  0  0  0
  -36.5745   -7.5496  -54.6760 H   0  0  0  0  0  0
  -42.7504   -9.3473  -52.8574 H   0  0  0  0  0  0
  -40.8932   -8.3388  -54.1310 H   0  0  0  0  0  0
  -42.2987  -10.6290  -50.7934 H   0  0  0  0  0  0
  -38.0831   -9.9002  -51.2591 H   0  0  0  0  0  0
  -39.0020  -13.3885  -49.1330 H   0  0  0  0  0  0
  -41.7355  -13.9206  -45.0359 H   0  0  0  0  0  0
  -42.8725   -9.7676  -46.7301 H   0  0  0  0  0  0
  -39.7664  -19.9965  -49.1751 H   0  0  0  0  0  0
  -38.0079  -19.7231  -48.9731 H   0  0  0  0  0  0
  -38.7705  -19.5064  -50.5705 H   0  0  0  0  0  0
  -41.3945  -20.2341  -47.0203 H   0  0  0  0  0  0
  -42.2400  -20.1854  -45.4420 H   0  0  0  0  0  0
  -40.4578  -20.1649  -45.5047 H   0  0  0  0  0  0
  -39.2998  -15.4337  -49.8094 H   0  0  0  0  0  0
  -37.5611  -15.1065  -49.5426 H   0  0  0  0  0  0
  -41.3179  -15.8618  -43.8806 H   0  0  0  0  0  0
  -42.2168  -15.9870  -45.4225 H   0  0  0  0  0  0
  -37.1769  -17.5325  -49.0529 H   0  0  0  0  0  0
  -37.9146  -17.3341  -50.6709 H   0  0  0  0  0  0
  -42.2372  -18.1930  -44.2067 H   0  0  0  0  0  0
  -40.4484  -18.1977  -44.2431 H   0  0  0  0  0  0
  -38.9996  -11.5391  -49.7129 H   0  0  0  0  0  0
  1  2  3  0  0  0
  1 30  1  0  0  0
  2 10  1  0  0  0
  3  4  2  0  0  0
  3  5  1  0  0  0
  3 31  1  0  0  0
  4 10  1  0  0  0
  4 32  1  0  0  0
  5 13  2  0  0  0
  5 33  1  0  0  0
  6 10  2  0  0  0
  6 13  1  0  0  0
  6 34  1  0  0  0
  7 11  2  0  0  0
  7 14  1  0  0  0
  7 35  1  0  0  0
  8 12  2  0  0  0
  8 15  1  0  0  0
  8 36  1  0  0  0
  9 23  2  0  0  0
  9 24  1  0  0  0
  9 37  1  0  0  0
 11 12  1  0  0  0
 11 16  1  0  0  0
 12 23  1  0  0  0
 13 25  1  0  0  0
 14 15  2  0  0  0
 14 26  1  0  0  0
 15 27  1  0  0  0
 16 24  2  0  0  0
 16 25  1  0  0  0
 17 28  1  0  0  0
 17 38  1  0  0  0
 17 39  1  0  0  0
 17 40  1  0  0  0
 18 29  1  0  0  0
 18 41  1  0  0  0
 18 42  1  0  0  0
 18 43  1  0  0  0
 19 21  1  0  0  0
 19 26  1  0  0  0
 19 44  1  0  0  0
 19 45  1  0  0  0
 20 22  1  0  0  0
 20 27  1  0  0  0
 20 46  1  0  0  0
 20 47  1  0  0  0
 21 28  1  0  0  0
 21 48  1  0  0  0
 21 49  1  0  0  0
 22 29  1  0  0  0
 22 50  1  0  0  0
 22 51  1  0  0  0
 25 52  1  0  0  0
M  END
> <s_m_entry_id>
4

> <s_m_entry_name>
cAbl-axitinib_nowat-posed-Erlotinib.1

> <s_m_Source_Path>
/Users/albaness/github/kinase-resistance-mutants/sensitivity-analysis/yank/input

> <s_m_Source_File>
cAbl-axitinib_nowat-posed-Erlotinib.mol2

> <i_m_Source_File_Index>
1

$$$$
~{N}-(3-chloro-4-fluoro-phenyl)-7-methoxy-6-(3-morpholinopropoxy)quinazolin-4-amine
                    3D
 Structure written by MMmdl.
 55 58  0  0  1  0            999 V2000
  -38.8520  -16.2918  -46.2317 C   0  0  0  0  0  0
  -38.1474  -17.4157  -45.8007 C   0  0  0  0  0  0
  -40.3703  -12.5266  -48.9715 C   0  0  0  0  0  0
  -41.7911  -10.6381  -47.5117 C   0  0  0  0  0  0
  -39.4049  -17.4281  -48.2909 C   0  0  0  0  0  0
  -42.1331  -13.5307  -45.4208 C   0  0  0  0  0  0
  -40.9743  -12.8771  -47.7515 C   0  0  0  0  0  0
  -41.6952  -11.9315  -47.0041 C   0  0  0  0  0  0
  -39.4808  -16.2980  -47.4768 C   0  0  0  0  0  0
  -40.4822  -11.2268  -49.4551 C   0  0  0  0  0  0
  -41.1933  -10.2818  -48.7241 C   0  0  0  0  0  0
  -38.0714  -18.5458  -46.6147 C   0  0  0  0  0  0
  -38.7002  -18.5520  -47.8598 C   0  0  0  0  0  0
  -40.9006  -14.1584  -47.2124 C   0  0  0  0  0  0
  -39.2192   -8.2255  -54.4639 C   0  0  0  0  0  0
  -37.3753   -8.3198  -52.9180 C   0  0  0  0  0  0
  -39.1648   -6.7021  -54.3917 C   0  0  0  0  0  0
  -37.3651   -6.7943  -52.8814 C   0  0  0  0  0  0
  -40.3112   -8.0738  -48.7764 C   0  0  0  0  0  0
  -40.1627  -10.8240  -53.0240 C   0  0  0  0  0  0
  -38.7657  -10.2626  -53.2535 C   0  0  0  0  0  0
  -40.7478  -10.4196  -51.6763 C   0  0  0  0  0  0
  -42.2770  -12.2559  -45.8362 N   0  0  0  0  0  0
  -41.4706  -14.5169  -46.0465 N   0  0  0  0  0  0
  -38.7338   -8.8024  -53.2025 N   0  0  0  0  0  0
  -40.1895  -15.1663  -47.9101 N   0  0  0  0  0  0
  -37.8325   -6.2641  -54.1223 O   0  0  0  0  0  0
  -41.3155   -9.0031  -49.1785 O   0  0  0  0  0  0
  -39.8908  -10.8920  -50.6453 O   0  0  0  0  0  0
  -37.3901  -19.6184  -46.1869 F   0  0  0  0  0  0
  -38.6087  -19.9430  -48.8701 Cl  0  0  0  0  0  0
  -38.9058  -15.4164  -45.5890 H   0  0  0  0  0  0
  -37.6576  -17.4103  -44.8314 H   0  0  0  0  0  0
  -39.8103  -13.2526  -49.5563 H   0  0  0  0  0  0
  -42.3440   -9.8841  -46.9534 H   0  0  0  0  0  0
  -39.8962  -17.4287  -49.2614 H   0  0  0  0  0  0
  -42.6042  -13.7856  -44.4793 H   0  0  0  0  0  0
  -40.2534   -8.5366  -54.6509 H   0  0  0  0  0  0
  -38.6022   -8.5728  -55.3028 H   0  0  0  0  0  0
  -36.6775   -8.6710  -53.6893 H   0  0  0  0  0  0
  -37.0315   -8.7005  -51.9495 H   0  0  0  0  0  0
  -39.4689   -6.2733  -55.3520 H   0  0  0  0  0  0
  -39.8419   -6.3096  -53.6234 H   0  0  0  0  0  0
  -37.9809   -6.4041  -52.0617 H   0  0  0  0  0  0
  -36.3436   -6.4317  -52.7288 H   0  0  0  0  0  0
  -40.5277   -7.0931  -49.2071 H   0  0  0  0  0  0
  -39.3329   -8.4242  -49.1147 H   0  0  0  0  0  0
  -40.3123   -7.9988  -47.6864 H   0  0  0  0  0  0
  -40.8297  -10.4723  -53.8210 H   0  0  0  0  0  0
  -40.1533  -11.9185  -53.1024 H   0  0  0  0  0  0
  -38.0831  -10.6238  -52.4780 H   0  0  0  0  0  0
  -38.3721  -10.5721  -54.2270 H   0  0  0  0  0  0
  -40.8259   -9.3316  -51.5878 H   0  0  0  0  0  0
  -41.7392  -10.8613  -51.5335 H   0  0  0  0  0  0
  -40.1992  -15.0399  -48.9153 H   0  0  0  0  0  0
  1  2  2  0  0  0
  1  9  1  0  0  0
  1 32  1  0  0  0
  2 12  1  0  0  0
  2 33  1  0  0  0
  3  7  2  0  0  0
  3 10  1  0  0  0
  3 34  1  0  0  0
  4  8  2  0  0  0
  4 11  1  0  0  0
  4 35  1  0  0  0
  5  9  2  0  0  0
  5 13  1  0  0  0
  5 36  1  0  0  0
  6 23  2  0  0  0
  6 24  1  0  0  0
  6 37  1  0  0  0
  7  8  1  0  0  0
  7 14  1  0  0  0
  8 23  1  0  0  0
  9 26  1  0  0  0
 10 11  2  0  0  0
 10 29  1  0  0  0
 11 28  1  0  0  0
 12 13  2  0  0  0
 12 30  1  0  0  0
 13 31  1  0  0  0
 14 24  2  0  0  0
 14 26  1  0  0  0
 15 17  1  0  0  0
 15 25  1  0  0  0
 15 38  1  0  0  0
 15 39  1  0  0  0
 16 18  1  0  0  0
 16 25  1  0  0  0
 16 40  1  0  0  0
 16 41  1  0  0  0
 17 27  1  0  0  0
 17 42  1  0  0  0
 17 43  1  0  0  0
 18 27  1  0  0  0
 18 44  1  0  0  0
 18 45  1  0  0  0
 19 28  1  0  0  0
 19 46  1  0  0  0
 19 47  1  0  0  0
 19 48  1  0  0  0
 20 21  1  0  0  0
 20 22  1  0  0  0
 20 49  1  0  0  0
 20 50  1  0  0  0
 21 25  1  0  0  0
 21 51  1  0  0  0
 21 52  1  0  0  0
 22 29  1  0  0  0
 22 53  1  0  0  0
 22 54  1  0  0  0
 26 55  1  0  0  0
M  END
> <s_m_entry_id>
5

> <s_m_entry_name>
cAbl-axitinib_nowat-posed-Gefitinib.1

> <s_m_Source_Path>
/Users/albaness/github/kinase-resistance-mutants/sensitivity-analysis/yank/input

> <s_m_Source_File>
cAbl-axitinib_nowat-posed-Gefitinib.mol2

> <i_m_Source_File_Index>
1

$$$$
4-[(4-methylpiperazin-1-yl)methyl]-~{N}-[4-methyl-3-[[4-(3-pyridyl)pyrimidin-2-yl]amino]phenyl]benzamide
                    3D
 Structure written by MMmdl.
 68 72  0  0  1  0            999 V2000
  -35.7752   -9.4881  -59.7145 C   0  0  0  0  0  0
  -36.8472   -9.7835  -58.8797 C   0  0  0  0  0  0
  -40.8759  -13.9829  -47.4334 C   0  0  0  0  0  0
  -38.9733  -13.9079  -48.9204 C   0  0  0  0  0  0
  -40.5922  -15.3161  -47.1375 C   0  0  0  0  0  0
  -38.6895  -15.2412  -48.6246 C   0  0  0  0  0  0
  -40.7349   -7.8553  -50.3089 C   0  0  0  0  0  0
  -40.6312   -9.1279  -49.7472 C   0  0  0  0  0  0
  -38.7165  -10.8480  -56.8780 C   0  0  0  0  0  0
  -39.5318   -9.9209  -51.7471 C   0  0  0  0  0  0
  -34.6479   -8.9179  -59.1453 C   0  0  0  0  0  0
  -39.7245  -11.0266  -55.9526 C   0  0  0  0  0  0
  -35.5889   -8.9331  -57.0495 C   0  0  0  0  0  0
  -36.7604   -9.5037  -57.5205 C   0  0  0  0  0  0
  -40.0665  -13.2788  -48.3249 C   0  0  0  0  0  0
  -39.4989  -15.9453  -47.7331 C   0  0  0  0  0  0
  -40.2372   -7.6156  -51.5897 C   0  0  0  0  0  0
  -40.0297  -10.1607  -50.4663 C   0  0  0  0  0  0
  -39.6356   -8.6484  -52.3088 C   0  0  0  0  0  0
  -37.8562   -9.7983  -56.6285 C   0  0  0  0  0  0
  -38.9861   -9.2570  -54.7318 C   0  0  0  0  0  0
  -40.3612  -11.8884  -48.6337 C   0  0  0  0  0  0
  -41.4664  -19.4905  -49.5638 C   0  0  0  0  0  0
  -41.4015  -20.4400  -47.3479 C   0  0  0  0  0  0
  -40.3048  -18.5599  -49.1988 C   0  0  0  0  0  0
  -40.2390  -19.5101  -46.9838 C   0  0  0  0  0  0
  -40.3614   -6.2431  -52.1667 C   0  0  0  0  0  0
  -42.5155  -21.6187  -49.1327 C   0  0  0  0  0  0
  -39.1932  -17.3800  -47.4134 C   0  0  0  0  0  0
  -34.5267   -8.6318  -57.8296 N   0  0  0  0  0  0
  -39.8895  -10.2469  -54.8639 N   0  0  0  0  0  0
  -37.9621   -8.9796  -55.5614 N   0  0  0  0  0  0
  -41.4047  -20.7341  -48.7862 N   0  0  0  0  0  0
  -40.3026  -18.2660  -47.7605 N   0  0  0  0  0  0
  -39.1271   -8.4233  -53.6071 N   0  0  0  0  0  0
  -39.9250  -11.4539  -49.8950 N   0  0  0  0  0  0
  -40.9253  -11.1457  -47.8184 O   0  0  0  0  0  0
  -35.8195   -9.6979  -60.7770 H   0  0  0  0  0  0
  -37.7434  -10.2312  -59.3021 H   0  0  0  0  0  0
  -41.7301  -13.5019  -46.9639 H   0  0  0  0  0  0
  -38.3357  -13.3692  -49.6166 H   0  0  0  0  0  0
  -41.2279  -15.8570  -46.4416 H   0  0  0  0  0  0
  -37.8353  -15.7234  -49.0928 H   0  0  0  0  0  0
  -41.2050   -7.0570  -49.7406 H   0  0  0  0  0  0
  -41.0222   -9.3036  -48.7482 H   0  0  0  0  0  0
  -38.6198  -11.4974  -57.7392 H   0  0  0  0  0  0
  -39.0630  -10.7269  -52.3080 H   0  0  0  0  0  0
  -33.7847   -8.6681  -59.7538 H   0  0  0  0  0  0
  -40.4494  -11.8259  -56.0644 H   0  0  0  0  0  0
  -35.4574   -8.6913  -55.9986 H   0  0  0  0  0  0
  -42.4206  -18.9719  -49.3984 H   0  0  0  0  0  0
  -41.4014  -19.7194  -50.6345 H   0  0  0  0  0  0
  -41.2887  -21.3713  -46.7797 H   0  0  0  0  0  0
  -42.3512  -19.9822  -47.0393 H   0  0  0  0  0  0
  -39.3546  -19.0171  -49.5070 H   0  0  0  0  0  0
  -40.4177  -17.6286  -49.7671 H   0  0  0  0  0  0
  -40.3030  -19.2819  -45.9129 H   0  0  0  0  0  0
  -39.2850  -20.0285  -47.1509 H   0  0  0  0  0  0
  -39.4804   -5.6432  -51.9115 H   0  0  0  0  0  0
  -40.4555   -6.2799  -53.2589 H   0  0  0  0  0  0
  -41.2546   -5.7330  -51.7859 H   0  0  0  0  0  0
  -42.4584  -22.5403  -48.5477 H   0  0  0  0  0  0
  -42.4784  -21.8736  -50.1953 H   0  0  0  0  0  0
  -43.4694  -21.1274  -48.9233 H   0  0  0  0  0  0
  -38.3074  -17.7176  -47.9624 H   0  0  0  0  0  0
  -38.9832  -17.5088  -46.3464 H   0  0  0  0  0  0
  -38.7996   -7.4741  -53.7545 H   0  0  0  0  0  0
  -39.4754  -12.1585  -50.4745 H   0  0  0  0  0  0
  1  2  2  0  0  0
  1 11  1  0  0  0
  1 38  1  0  0  0
  2 14  1  0  0  0
  2 39  1  0  0  0
  3  5  2  0  0  0
  3 15  1  0  0  0
  3 40  1  0  0  0
  4  6  1  0  0  0
  4 15  2  0  0  0
  4 41  1  0  0  0
  5 16  1  0  0  0
  5 42  1  0  0  0
  6 16  2  0  0  0
  6 43  1  0  0  0
  7  8  2  0  0  0
  7 17  1  0  0  0
  7 44  1  0  0  0
  8 18  1  0  0  0
  8 45  1  0  0  0
  9 12  2  0  0  0
  9 20  1  0  0  0
  9 46  1  0  0  0
 10 18  2  0  0  0
 10 19  1  0  0  0
 10 47  1  0  0  0
 11 30  2  0  0  0
 11 48  1  0  0  0
 12 31  1  0  0  0
 12 49  1  0  0  0
 13 14  2  0  0  0
 13 30  1  0  0  0
 13 50  1  0  0  0
 14 20  1  0  0  0
 15 22  1  0  0  0
 16 29  1  0  0  0
 17 19  2  0  0  0
 17 27  1  0  0  0
 18 36  1  0  0  0
 19 35  1  0  0  0
 20 32  2  0  0  0
 21 31  2  0  0  0
 21 32  1  0  0  0
 21 35  1  0  0  0
 22 36  1  0  0  0
 22 37  2  0  0  0
 23 25  1  0  0  0
 23 33  1  0  0  0
 23 51  1  0  0  0
 23 52  1  0  0  0
 24 26  1  0  0  0
 24 33  1  0  0  0
 24 53  1  0  0  0
 24 54  1  0  0  0
 25 34  1  0  0  0
 25 55  1  0  0  0
 25 56  1  0  0  0
 26 34  1  0  0  0
 26 57  1  0  0  0
 26 58  1  0  0  0
 27 59  1  0  0  0
 27 60  1  0  0  0
 27 61  1  0  0  0
 28 33  1  0  0  0
 28 62  1  0  0  0
 28 63  1  0  0  0
 28 64  1  0  0  0
 29 34  1  0  0  0
 29 65  1  0  0  0
 29 66  1  0  0  0
 35 67  1  0  0  0
 36 68  1  0  0  0
M  END
> <s_m_entry_id>
6

> <s_m_entry_name>
cAbl-axitinib_nowat-posed-Imatinib.1

> <s_m_Source_Path>
/Users/albaness/github/kinase-resistance-mutants/sensitivity-analysis/yank/input

> <s_m_Source_File>
cAbl-axitinib_nowat-posed-Imatinib.mol2

> <i_m_Source_File_Index>
1

$$$$
4-methyl-~{N}-[3-(4-methylimidazol-1-yl)-5-(trifluoromethyl)phenyl]-3-[[4-(3-pyridyl)pyrimidin-2-yl]amino]benzamide
                    3D
 Structure written by MMmdl.
 61 65  0  0  1  0            999 V2000
  -41.1810  -19.9286  -44.6307 C   0  0  0  0  0  0
  -40.8539  -18.9436  -45.5560 C   0  0  0  0  0  0
  -41.0494   -9.7853  -48.9400 C   0  0  0  0  0  0
  -41.4643   -9.7595  -47.6086 C   0  0  0  0  0  0
  -39.0647  -16.8315  -46.9711 C   0  0  0  0  0  0
  -40.7541  -12.1792  -48.8017 C   0  0  0  0  0  0
  -38.2421   -8.9545  -55.2449 C   0  0  0  0  0  0
  -39.7737  -10.1420  -53.8024 C   0  0  0  0  0  0
  -38.1367   -8.6410  -52.8516 C   0  0  0  0  0  0
  -41.0618  -19.6198  -43.2853 C   0  0  0  0  0  0
  -38.8274  -15.7615  -47.8096 C   0  0  0  0  0  0
  -40.3387  -17.4885  -43.7468 C   0  0  0  0  0  0
  -35.9523   -6.7982  -53.2976 C   0  0  0  0  0  0
  -36.0492   -7.0866  -55.4803 C   0  0  0  0  0  0
  -40.4238  -17.6975  -45.1138 C   0  0  0  0  0  0
  -40.6944  -10.9952  -49.5366 C   0  0  0  0  0  0
  -41.5241  -10.9436  -46.8736 C   0  0  0  0  0  0
  -39.2983   -9.8506  -55.0810 C   0  0  0  0  0  0
  -37.6612   -8.3497  -54.1302 C   0  0  0  0  0  0
  -41.1690  -12.1535  -47.4702 C   0  0  0  0  0  0
  -39.1929   -9.5371  -52.6877 C   0  0  0  0  0  0
  -40.0766  -16.6549  -46.0495 C   0  0  0  0  0  0
  -35.0051   -6.0424  -53.9473 C   0  0  0  0  0  0
  -40.4798  -14.5545  -46.8196 C   0  0  0  0  0  0
  -40.2613  -11.0217  -50.9247 C   0  0  0  0  0  0
  -41.9688  -10.8861  -45.4483 C   0  0  0  0  0  0
  -34.0094   -5.1318  -53.3620 C   0  0  0  0  0  0
  -39.9198  -10.4967  -56.2727 C   0  0  0  0  0  0
  -40.6476  -18.4208  -42.8178 N   0  0  0  0  0  0
  -39.5184  -14.6037  -47.7613 N   0  0  0  0  0  0
  -35.0709   -6.2261  -55.3058 N   0  0  0  0  0  0
  -40.8070  -15.5253  -45.9455 N   0  0  0  0  0  0
  -36.6136   -7.4613  -54.2927 N   0  0  0  0  0  0
  -41.2215  -13.3614  -46.7403 N   0  0  0  0  0  0
  -39.6766   -9.8330  -51.3883 N   0  0  0  0  0  0
  -40.4351  -12.0166  -51.6422 O   0  0  0  0  0  0
  -39.3549  -10.1186  -57.4576 F   0  0  0  0  0  0
  -39.8398  -11.8603  -56.2595 F   0  0  0  0  0  0
  -41.2487  -10.2093  -56.3928 F   0  0  0  0  0  0
  -41.5194  -20.9070  -44.9517 H   0  0  0  0  0  0
  -40.9389  -19.1612  -46.6178 H   0  0  0  0  0  0
  -41.0069   -8.8569  -49.5035 H   0  0  0  0  0  0
  -41.7399   -8.8118  -47.1535 H   0  0  0  0  0  0
  -38.4861  -17.7440  -47.0434 H   0  0  0  0  0  0
  -40.4755  -13.1225  -49.2668 H   0  0  0  0  0  0
  -37.8744   -8.7304  -56.2441 H   0  0  0  0  0  0
  -40.5981  -10.8404  -53.6770 H   0  0  0  0  0  0
  -37.6848   -8.1707  -51.9804 H   0  0  0  0  0  0
  -41.3044  -20.3538  -42.5236 H   0  0  0  0  0  0
  -38.0516  -15.8070  -48.5664 H   0  0  0  0  0  0
  -40.0108  -16.5374  -43.3369 H   0  0  0  0  0  0
  -36.2016   -6.9137  -52.2511 H   0  0  0  0  0  0
  -36.3881   -7.4676  -56.4348 H   0  0  0  0  0  0
  -43.0561  -11.0077  -45.3852 H   0  0  0  0  0  0
  -41.4931  -11.6750  -44.8533 H   0  0  0  0  0  0
  -41.6960   -9.9291  -44.9871 H   0  0  0  0  0  0
  -33.0677   -5.6600  -53.1307 H   0  0  0  0  0  0
  -33.7607   -4.2928  -54.0373 H   0  0  0  0  0  0
  -34.3667   -4.6669  -52.4248 H   0  0  0  0  0  0
  -41.9351  -13.3675  -46.0186 H   0  0  0  0  0  0
  -39.5883   -9.0869  -50.7029 H   0  0  0  0  0  0
  1  2  2  0  0  0
  1 10  1  0  0  0
  1 40  1  0  0  0
  2 15  1  0  0  0
  2 41  1  0  0  0
  3  4  2  0  0  0
  3 16  1  0  0  0
  3 42  1  0  0  0
  4 17  1  0  0  0
  4 43  1  0  0  0
  5 11  2  0  0  0
  5 22  1  0  0  0
  5 44  1  0  0  0
  6 16  2  0  0  0
  6 20  1  0  0  0
  6 45  1  0  0  0
  7 18  2  0  0  0
  7 19  1  0  0  0
  7 46  1  0  0  0
  8 18  1  0  0  0
  8 21  2  0  0  0
  8 47  1  0  0  0
  9 19  2  0  0  0
  9 21  1  0  0  0
  9 48  1  0  0  0
 10 29  2  0  0  0
 10 49  1  0  0  0
 11 30  1  0  0  0
 11 50  1  0  0  0
 12 15  2  0  0  0
 12 29  1  0  0  0
 12 51  1  0  0  0
 13 23  2  0  0  0
 13 33  1  0  0  0
 13 52  1  0  0  0
 14 31  2  0  0  0
 14 33  1  0  0  0
 14 53  1  0  0  0
 15 22  1  0  0  0
 16 25  1  0  0  0
 17 20  2  0  0  0
 17 26  1  0  0  0
 18 28  1  0  0  0
 19 33  1  0  0  0
 20 34  1  0  0  0
 21 35  1  0  0  0
 22 32  2  0  0  0
 23 27  1  0  0  0
 23 31  1  0  0  0
 24 30  2  0  0  0
 24 32  1  0  0  0
 24 34  1  0  0  0
 25 35  1  0  0  0
 25 36  2  0  0  0
 26 54  1  0  0  0
 26 55  1  0  0  0
 26 56  1  0  0  0
 27 57  1  0  0  0
 27 58  1  0  0  0
 27 59  1  0  0  0
 28 37  1  0  0  0
 28 38  1  0  0  0
 28 39  1  0  0  0
 34 60  1  0  0  0
 35 61  1  0  0  0
M  END
> <s_m_entry_id>
7

> <s_m_entry_name>
cAbl-axitinib_nowat-posed-Nilotinib.1

> <s_m_Source_Path>
/Users/albaness/github/kinase-resistance-mutants/sensitivity-analysis/yank/input

> <s_m_Source_File>
cAbl-axitinib_nowat-posed-Nilotinib.mol2

> <i_m_Source_File_Index>
1

$$$$
3-(2-imidazo[1,2-b]pyridazin-3-ylethynyl)-4-methyl-~{N}-[4-[(4-methylpiperazin-1-yl)methyl]-3-(trifluoromethyl)phenyl]benzamide
                    3D
 Structure written by MMmdl.
 66 70  0  0  1  0            999 V2000
  -40.0635   -9.6524  -51.6219 C   0  0  0  0  0  0
  -39.6340   -9.5978  -52.7416 C   0  0  0  0  0  0
  -41.5606   -9.8939  -47.6828 C   0  0  0  0  0  0
  -41.5790   -8.6714  -48.3542 C   0  0  0  0  0  0
  -38.9632  -16.7262  -47.9786 C   0  0  0  0  0  0
  -39.2127  -15.4305  -48.4308 C   0  0  0  0  0  0
  -40.5571  -10.9402  -49.6156 C   0  0  0  0  0  0
  -40.0890  -14.8408  -46.2579 C   0  0  0  0  0  0
  -39.4945  -10.2755  -55.1708 C   0  0  0  0  0  0
  -40.5756   -9.7177  -50.2870 C   0  0  0  0  0  0
  -39.1224   -9.5329  -54.0758 C   0  0  0  0  0  0
  -41.0496  -11.0284  -48.3135 C   0  0  0  0  0  0
  -41.0866   -8.5834  -49.6563 C   0  0  0  0  0  0
  -39.2766  -17.0793  -46.6660 C   0  0  0  0  0  0
  -39.8395  -16.1366  -45.8057 C   0  0  0  0  0  0
  -39.7755  -14.4878  -47.5704 C   0  0  0  0  0  0
  -37.9562   -8.9680  -55.8728 C   0  0  0  0  0  0
  -36.9750   -8.2148  -56.5590 C   0  0  0  0  0  0
  -36.2731   -7.2871  -55.8978 C   0  0  0  0  0  0
  -36.5834   -7.1135  -54.4585 C   0  0  0  0  0  0
  -41.0289  -12.3183  -47.6027 C   0  0  0  0  0  0
  -41.1587  -21.0104  -44.4197 C   0  0  0  0  0  0
  -42.2894  -20.3149  -46.4330 C   0  0  0  0  0  0
  -39.8856  -20.2978  -44.8888 C   0  0  0  0  0  0
  -41.0164  -19.6013  -46.9011 C   0  0  0  0  0  0
  -41.1227   -7.2566  -50.3448 C   0  0  0  0  0  0
  -43.1776  -22.1300  -45.1170 C   0  0  0  0  0  0
  -38.9991  -18.4800  -46.2022 C   0  0  0  0  0  0
  -40.1836  -16.4919  -44.3964 C   0  0  0  0  0  0
  -38.7694   -9.9216  -56.2799 N   0  0  0  0  0  0
  -37.4690   -7.7734  -53.7790 N   0  0  0  0  0  0
  -38.1366   -8.6958  -54.5277 N   0  0  0  0  0  0
  -41.9623  -21.4532  -45.5657 N   0  0  0  0  0  0
  -40.2137  -19.1586  -45.7545 N   0  0  0  0  0  0
  -40.0248  -13.1919  -48.0231 N   0  0  0  0  0  0
  -41.8659  -12.5795  -46.7413 O   0  0  0  0  0  0
  -40.7255  -15.4571  -43.6899 F   0  0  0  0  0  0
  -41.0906  -17.5071  -44.2967 F   0  0  0  0  0  0
  -39.0966  -16.8977  -43.6791 F   0  0  0  0  0  0
  -41.9490   -9.9518  -46.6692 H   0  0  0  0  0  0
  -41.9800   -7.7939  -47.8537 H   0  0  0  0  0  0
  -38.5245  -17.4534  -48.6568 H   0  0  0  0  0  0
  -38.9643  -15.1666  -49.4557 H   0  0  0  0  0  0
  -40.1588  -11.8286  -50.1023 H   0  0  0  0  0  0
  -40.5281  -14.1067  -45.5859 H   0  0  0  0  0  0
  -40.2485  -11.0484  -55.2226 H   0  0  0  0  0  0
  -36.8011   -8.3959  -57.6138 H   0  0  0  0  0  0
  -35.5094   -6.6753  -56.3579 H   0  0  0  0  0  0
  -35.9869   -6.3426  -53.9440 H   0  0  0  0  0  0
  -40.8654  -21.8778  -43.8157 H   0  0  0  0  0  0
  -41.7385  -20.3410  -43.7695 H   0  0  0  0  0  0
  -42.8321  -20.6677  -47.3186 H   0  0  0  0  0  0
  -42.9427  -19.6009  -45.9129 H   0  0  0  0  0  0
  -39.2338  -21.0117  -45.4105 H   0  0  0  0  0  0
  -39.3416  -19.9460  -44.0038 H   0  0  0  0  0  0
  -40.4360  -20.2706  -47.5507 H   0  0  0  0  0  0
  -41.3096  -18.7341  -47.5051 H   0  0  0  0  0  0
  -40.1966   -6.7078  -50.1489 H   0  0  0  0  0  0
  -41.2387   -7.3806  -51.4266 H   0  0  0  0  0  0
  -41.9702   -6.6577  -49.9949 H   0  0  0  0  0  0
  -43.7465  -22.4433  -45.9861 H   0  0  0  0  0  0
  -43.7648  -21.4419  -44.5176 H   0  0  0  0  0  0
  -42.9017  -22.9951  -44.5227 H   0  0  0  0  0  0
  -38.5592  -19.0743  -47.0105 H   0  0  0  0  0  0
  -38.2870  -18.4847  -45.3703 H   0  0  0  0  0  0
  -39.4044  -12.8814  -48.7668 H   0  0  0  0  0  0
  1  2  3  0  0  0
  1 10  1  0  0  0
  2 11  1  0  0  0
  3  4  2  0  0  0
  3 12  1  0  0  0
  3 40  1  0  0  0
  4 13  1  0  0  0
  4 41  1  0  0  0
  5  6  2  0  0  0
  5 14  1  0  0  0
  5 42  1  0  0  0
  6 16  1  0  0  0
  6 43  1  0  0  0
  7 10  1  0  0  0
  7 12  2  0  0  0
  7 44  1  0  0  0
  8 15  1  0  0  0
  8 16  2  0  0  0
  8 45  1  0  0  0
  9 11  2  0  0  0
  9 30  1  0  0  0
  9 46  1  0  0  0
 10 13  2  0  0  0
 11 32  1  0  0  0
 12 21  1  0  0  0
 13 26  1  0  0  0
 14 15  2  0  0  0
 14 28  1  0  0  0
 15 29  1  0  0  0
 16 35  1  0  0  0
 17 18  1  0  0  0
 17 30  2  0  0  0
 17 32  1  0  0  0
 18 19  2  0  0  0
 18 47  1  0  0  0
 19 20  1  0  0  0
 19 48  1  0  0  0
 20 31  2  0  0  0
 20 49  1  0  0  0
 21 35  1  0  0  0
 21 36  2  0  0  0
 22 24  1  0  0  0
 22 33  1  0  0  0
 22 50  1  0  0  0
 22 51  1  0  0  0
 23 25  1  0  0  0
 23 33  1  0  0  0
 23 52  1  0  0  0
 23 53  1  0  0  0
 24 34  1  0  0  0
 24 54  1  0  0  0
 24 55  1  0  0  0
 25 34  1  0  0  0
 25 56  1  0  0  0
 25 57  1  0  0  0
 26 58  1  0  0  0
 26 59  1  0  0  0
 26 60  1  0  0  0
 27 33  1  0  0  0
 27 61  1  0  0  0
 27 62  1  0  0  0
 27 63  1  0  0  0
 28 34  1  0  0  0
 28 64  1  0  0  0
 28 65  1  0  0  0
 29 37  1  0  0  0
 29 38  1  0  0  0
 29 39  1  0  0  0
 31 32  1  0  0  0
 35 66  1  0  0  0
M  END
> <s_m_entry_id>
8

> <s_m_entry_name>
cAbl-axitinib_nowat-posed-Ponatinib.1

> <s_m_Source_Path>
/Users/albaness/github/kinase-resistance-mutants/sensitivity-analysis/yank/input

> <s_m_Source_File>
cAbl-axitinib_nowat-posed-Ponatinib.mol2

> <i_m_Source_File_Index>
1

$$$$
