~{N}-methyl-2-[[3-[(~{E})-2-(2-pyridyl)vinyl]-1~{H}-indazol-6-yl]sulfanyl]benzamide
                    3D
 Structure written by MMmdl.
 46 49  0  0  1  0            999 V2000
  -38.2524   -5.0878  -57.4979 C   0  0  0  0  0  0
  -38.0064   -6.4566  -57.6049 C   0  0  0  0  0  0
  -42.9642  -17.4390  -56.2121 C   0  0  0  0  0  0
  -43.8768  -17.7119  -55.1992 C   0  0  0  0  0  0
  -42.3173  -11.1700  -57.8572 C   0  0  0  0  0  0
  -39.3823   -4.5333  -58.0992 C   0  0  0  0  0  0
  -38.8901   -7.2709  -58.3132 C   0  0  0  0  0  0
  -41.9294  -10.2565  -58.8456 C   0  0  0  0  0  0
  -42.5582  -16.1288  -56.4400 C   0  0  0  0  0  0
  -41.6620   -8.4861  -57.1956 C   0  0  0  0  0  0
  -44.3497  -16.6477  -54.4483 C   0  0  0  0  0  0
  -42.3767  -10.7311  -56.5240 C   0  0  0  0  0  0
  -40.2661   -5.3475  -58.8075 C   0  0  0  0  0  0
  -42.0512   -9.4126  -56.2258 C   0  0  0  0  0  0
  -41.6078   -8.9379  -58.5183 C   0  0  0  0  0  0
  -40.0200   -6.7163  -58.9145 C   0  0  0  0  0  0
  -43.0903  -15.1355  -55.6338 C   0  0  0  0  0  0
  -42.7047  -11.3014  -55.2753 C   0  0  0  0  0  0
  -42.6910  -13.7314  -55.8353 C   0  0  0  0  0  0
  -43.1042  -12.6512  -55.0925 C   0  0  0  0  0  0
  -41.4308   -4.7144  -59.4160 C   0  0  0  0  0  0
  -42.2308   -2.9801  -61.0343 C   0  0  0  0  0  0
  -43.9787  -15.3620  -54.6402 N   0  0  0  0  0  0
  -42.6012  -10.4339  -54.2659 N   0  0  0  0  0  0
  -42.2048   -9.3014  -54.8701 N   0  0  0  0  0  0
  -41.1839   -3.7154  -60.3620 N   0  0  0  0  0  0
  -42.5765   -5.0513  -59.0764 O   0  0  0  0  0  0
  -41.1177   -7.8047  -59.8091 S   0  0  0  0  0  0
  -37.5635   -4.4537  -56.9473 H   0  0  0  0  0  0
  -37.1260   -6.8881  -57.1375 H   0  0  0  0  0  0
  -42.5696  -18.2464  -56.8217 H   0  0  0  0  0  0
  -44.2076  -18.7255  -55.0044 H   0  0  0  0  0  0
  -42.5643  -12.1922  -58.1277 H   0  0  0  0  0  0
  -39.5619   -3.4646  -58.0087 H   0  0  0  0  0  0
  -38.6778   -8.3348  -58.3851 H   0  0  0  0  0  0
  -41.8845  -10.5996  -59.8772 H   0  0  0  0  0  0
  -41.8461  -15.9083  -57.2288 H   0  0  0  0  0  0
  -41.4156   -7.4651  -56.9224 H   0  0  0  0  0  0
  -45.0642  -16.8070  -53.6474 H   0  0  0  0  0  0
  -41.9758  -13.5668  -56.6376 H   0  0  0  0  0  0
  -43.7957  -12.8738  -54.2515 H   0  0  0  0  0  0
  -42.4673   -3.4530  -61.9910 H   0  0  0  0  0  0
  -41.9108   -1.9512  -61.2199 H   0  0  0  0  0  0
  -43.1342   -2.9605  -60.4187 H   0  0  0  0  0  0
  -42.0551   -8.4809  -54.2963 H   0  0  0  0  0  0
  -40.2273   -3.4369  -60.5548 H   0  0  0  0  0  0
  1  2  2  0  0  0
  1  6  1  0  0  0
  1 29  1  0  0  0
  2  7  1  0  0  0
  2 30  1  0  0  0
  3  4  2  0  0  0
  3  9  1  0  0  0
  3 31  1  0  0  0
  4 11  1  0  0  0
  4 32  1  0  0  0
  5  8  2  0  0  0
  5 12  1  0  0  0
  5 33  1  0  0  0
  6 13  2  0  0  0
  6 34  1  0  0  0
  7 16  2  0  0  0
  7 35  1  0  0  0
  8 15  1  0  0  0
  8 36  1  0  0  0
  9 17  2  0  0  0
  9 37  1  0  0  0
 10 14  1  0  0  0
 10 15  2  0  0  0
 10 38  1  0  0  0
 11 23  2  0  0  0
 11 39  1  0  0  0
 12 14  2  0  0  0
 12 18  1  0  0  0
 13 16  1  0  0  0
 13 21  1  0  0  0
 14 25  1  0  0  0
 15 28  1  0  0  0
 16 28  1  0  0  0
 17 19  1  0  0  0
 17 23  1  0  0  0
 18 20  1  0  0  0
 18 24  2  0  0  0
 19 20  2  0  0  0
 19 40  1  0  0  0
 20 41  1  0  0  0
 21 26  1  0  0  0
 21 27  2  0  0  0
 22 26  1  0  0  0
 22 42  1  0  0  0
 22 43  1  0  0  0
 22 44  1  0  0  0
 24 25  1  0  0  0
 25 45  1  0  0  0
 26 46  1  0  0  0
M  END
> <s_m_entry_id>
47

> <s_m_entry_name>
cAbl-nilotinib_nowat-posed-Axitinib.1

> <s_m_Source_Path>
/Users/albaness/github/kinase-resistance-mutants/sensitivity-analysis/yank/input

> <s_m_Source_File>
cAbl-nilotinib_nowat-posed-Axitinib.mol2

> <i_m_Source_File_Index>
1

$$$$
4-(2,4-dichloro-5-methoxy-anilino)-6-methoxy-7-[3-(4-methylpiperazin-1-yl)propoxy]quinoline-3-carbonitrile
                    3D
 Structure written by MMmdl.
 65 68  0  0  1  0            999 V2000
  -38.3611   -7.6487  -56.6525 C   0  0  0  0  0  0
  -42.6725   -5.6827  -57.9815 C   0  0  0  0  0  0
  -41.2790   -3.9068  -59.5957 C   0  0  0  0  0  0
  -41.5741   -9.4557  -57.9619 C   0  0  0  0  0  0
  -42.8218  -10.9062  -55.9317 C   0  0  0  0  0  0
  -38.5450   -5.7920  -58.2107 C   0  0  0  0  0  0
  -39.1564   -6.7120  -57.3833 C   0  0  0  0  0  0
  -41.2698   -5.7403  -58.0421 C   0  0  0  0  0  0
  -40.5546   -4.8408  -58.8603 C   0  0  0  0  0  0
  -41.7077   -8.9007  -56.6893 C   0  0  0  0  0  0
  -40.5411   -6.6809  -57.3017 C   0  0  0  0  0  0
  -43.3716   -4.7382  -58.7275 C   0  0  0  0  0  0
  -42.6736   -3.8493  -59.5356 C   0  0  0  0  0  0
  -42.0645  -10.7359  -58.2195 C   0  0  0  0  0  0
  -42.3315   -9.6259  -55.6741 C   0  0  0  0  0  0
  -42.6883  -11.4611  -57.2044 C   0  0  0  0  0  0
  -42.4819    1.0143  -64.6532 C   0  0  0  0  0  0
  -40.5290    1.8666  -63.5237 C   0  0  0  0  0  0
  -43.2425    0.9947  -63.3228 C   0  0  0  0  0  0
  -41.2904    1.8481  -62.1938 C   0  0  0  0  0  0
  -40.7231    2.0731  -65.9185 C   0  0  0  0  0  0
  -45.3028   -3.8549  -57.6570 C   0  0  0  0  0  0
  -42.9725  -11.0028  -60.4013 C   0  0  0  0  0  0
  -43.6821   -0.5675  -60.6375 C   0  0  0  0  0  0
  -43.0470    0.7858  -60.9284 C   0  0  0  0  0  0
  -42.6575   -1.6908  -60.5338 C   0  0  0  0  0  0
  -37.7155   -8.4091  -56.0594 N   0  0  0  0  0  0
  -39.2109   -4.8687  -58.9414 N   0  0  0  0  0  0
  -41.4500    2.0585  -64.6506 N   0  0  0  0  0  0
  -42.3207    0.8024  -62.1966 N   0  0  0  0  0  0
  -41.2048   -7.6113  -56.4609 N   0  0  0  0  0  0
  -44.7305   -4.6954  -58.6577 O   0  0  0  0  0  0
  -41.9202  -11.2534  -59.4724 O   0  0  0  0  0  0
  -43.3408   -2.9110  -60.2791 O   0  0  0  0  0  0
  -42.5175   -8.9757  -54.0844 Cl  0  0  0  0  0  0
  -43.3035  -13.0463  -57.4957 Cl  0  0  0  0  0  0
  -43.2404   -6.3681  -57.3559 H   0  0  0  0  0  0
  -40.7492   -3.2015  -60.2348 H   0  0  0  0  0  0
  -41.0885   -8.8943  -58.7570 H   0  0  0  0  0  0
  -43.3086  -11.4725  -55.1403 H   0  0  0  0  0  0
  -37.4651   -5.7573  -58.3250 H   0  0  0  0  0  0
  -42.0390    0.0264  -64.8396 H   0  0  0  0  0  0
  -43.2011    1.2061  -65.4587 H   0  0  0  0  0  0
  -39.8037    2.6888  -63.4940 H   0  0  0  0  0  0
  -39.9604    0.9335  -63.6367 H   0  0  0  0  0  0
  -43.8112    1.9277  -63.2090 H   0  0  0  0  0  0
  -43.9677    0.1725  -63.3526 H   0  0  0  0  0  0
  -40.5713    1.6574  -61.3879 H   0  0  0  0  0  0
  -41.7344    2.8357  -62.0085 H   0  0  0  0  0  0
  -39.9584    2.8541  -65.9042 H   0  0  0  0  0  0
  -41.4104    2.2688  -66.7461 H   0  0  0  0  0  0
  -40.2375    1.1082  -66.0869 H   0  0  0  0  0  0
  -46.3927   -3.9134  -57.7107 H   0  0  0  0  0  0
  -44.9744   -2.8244  -57.8140 H   0  0  0  0  0  0
  -44.9699   -4.1955  -56.6737 H   0  0  0  0  0  0
  -42.7324  -11.4697  -61.3597 H   0  0  0  0  0  0
  -43.0969   -9.9247  -60.5301 H   0  0  0  0  0  0
  -43.8994  -11.4307  -60.0122 H   0  0  0  0  0  0
  -44.2424   -0.5097  -59.6959 H   0  0  0  0  0  0
  -44.4197   -0.8187  -61.4102 H   0  0  0  0  0  0
  -43.8200    1.5578  -60.9935 H   0  0  0  0  0  0
  -42.3457    1.0697  -60.1373 H   0  0  0  0  0  0
  -42.0928   -1.8002  -61.4648 H   0  0  0  0  0  0
  -41.9584   -1.5061  -59.7119 H   0  0  0  0  0  0
  -41.3359   -7.2716  -55.5162 H   0  0  0  0  0  0
  1  7  1  0  0  0
  1 27  3  0  0  0
  2  8  2  0  0  0
  2 12  1  0  0  0
  2 37  1  0  0  0
  3  9  2  0  0  0
  3 13  1  0  0  0
  3 38  1  0  0  0
  4 10  2  0  0  0
  4 14  1  0  0  0
  4 39  1  0  0  0
  5 15  2  0  0  0
  5 16  1  0  0  0
  5 40  1  0  0  0
  6  7  1  0  0  0
  6 28  2  0  0  0
  6 41  1  0  0  0
  7 11  2  0  0  0
  8  9  1  0  0  0
  8 11  1  0  0  0
  9 28  1  0  0  0
 10 15  1  0  0  0
 10 31  1  0  0  0
 11 31  1  0  0  0
 12 13  2  0  0  0
 12 32  1  0  0  0
 13 34  1  0  0  0
 14 16  2  0  0  0
 14 33  1  0  0  0
 15 35  1  0  0  0
 16 36  1  0  0  0
 17 19  1  0  0  0
 17 29  1  0  0  0
 17 42  1  0  0  0
 17 43  1  0  0  0
 18 20  1  0  0  0
 18 29  1  0  0  0
 18 44  1  0  0  0
 18 45  1  0  0  0
 19 30  1  0  0  0
 19 46  1  0  0  0
 19 47  1  0  0  0
 20 30  1  0  0  0
 20 48  1  0  0  0
 20 49  1  0  0  0
 21 29  1  0  0  0
 21 50  1  0  0  0
 21 51  1  0  0  0
 21 52  1  0  0  0
 22 32  1  0  0  0
 22 53  1  0  0  0
 22 54  1  0  0  0
 22 55  1  0  0  0
 23 33  1  0  0  0
 23 56  1  0  0  0
 23 57  1  0  0  0
 23 58  1  0  0  0
 24 25  1  0  0  0
 24 26  1  0  0  0
 24 59  1  0  0  0
 24 60  1  0  0  0
 25 30  1  0  0  0
 25 61  1  0  0  0
 25 62  1  0  0  0
 26 34  1  0  0  0
 26 63  1  0  0  0
 26 64  1  0  0  0
 31 65  1  0  0  0
M  END
> <s_m_entry_id>
48

> <s_m_entry_name>
cAbl-nilotinib_nowat-posed-Bosutinib.1

> <s_m_Source_Path>
/Users/albaness/github/kinase-resistance-mutants/sensitivity-analysis/yank/input

> <s_m_Source_File>
cAbl-nilotinib_nowat-posed-Bosutinib.mol2

> <i_m_Source_File_Index>
1

$$$$
~{N}-(2-chloro-6-methyl-phenyl)-2-[[6-[4-(2-hydroxyethyl)piperazin-1-yl]-2-methyl-pyrimidin-4-yl]amino]thiazole-5-carboxamide
                    3D
 Structure written by MMmdl.
 59 62  0  0  1  0            999 V2000
  -41.8494  -12.4128  -56.8334 C   0  0  0  0  0  0
  -42.1055  -11.3897  -55.9205 C   0  0  0  0  0  0
  -41.7335  -12.1218  -58.1927 C   0  0  0  0  0  0
  -42.0223   -0.7195  -61.3387 C   0  0  0  0  0  0
  -43.2096   -5.6578  -58.8003 C   0  0  0  0  0  0
  -42.2458  -10.0757  -56.3669 C   0  0  0  0  0  0
  -42.1299   -9.7847  -57.7262 C   0  0  0  0  0  0
  -41.8737  -10.8077  -58.6390 C   0  0  0  0  0  0
  -41.9520   -6.0685  -58.4106 C   0  0  0  0  0  0
  -42.8460    0.2544  -61.8654 C   0  0  0  0  0  0
  -42.6077   -1.5612  -60.4151 C   0  0  0  0  0  0
  -44.5964   -0.4781  -60.6137 C   0  0  0  0  0  0
  -42.0867   -3.8594  -59.3615 C   0  0  0  0  0  0
  -41.5280   -7.2942  -57.8224 C   0  0  0  0  0  0
  -40.8639    1.4607  -62.7366 C   0  0  0  0  0  0
  -43.1567    2.1664  -63.3796 C   0  0  0  0  0  0
  -40.3680    1.9850  -64.0866 C   0  0  0  0  0  0
  -42.5871    2.6666  -64.7090 C   0  0  0  0  0  0
  -42.5190   -9.0025  -55.3631 C   0  0  0  0  0  0
  -46.0258   -0.3441  -60.2111 C   0  0  0  0  0  0
  -40.6785    3.6310  -65.8169 C   0  0  0  0  0  0
  -41.1696    5.0535  -66.0141 C   0  0  0  0  0  0
  -43.2888   -4.3911  -59.3454 N   0  0  0  0  0  0
  -44.1426    0.4044  -61.5242 N   0  0  0  0  0  0
  -43.8969   -1.4686  -60.0279 N   0  0  0  0  0  0
  -42.2903    1.1290  -62.8059 N   0  0  0  0  0  0
  -41.1944    3.1046  -64.5538 N   0  0  0  0  0  0
  -42.2785   -8.4453  -58.1666 N   0  0  0  0  0  0
  -41.7962   -2.5752  -59.8501 N   0  0  0  0  0  0
  -40.5691   -7.3673  -57.0160 O   0  0  0  0  0  0
  -40.6368    5.5734  -67.2256 O   0  0  0  0  0  0
  -40.8146   -4.8271  -58.7369 S   0  0  0  0  0  0
  -41.7230  -10.4961  -60.3321 Cl  0  0  0  0  0  0
  -41.7394  -13.4358  -56.4855 H   0  0  0  0  0  0
  -42.1952  -11.6271  -54.8636 H   0  0  0  0  0  0
  -41.5360  -12.9313  -58.8909 H   0  0  0  0  0  0
  -40.9831   -0.8171  -61.6315 H   0  0  0  0  0  0
  -44.1129   -6.2468  -58.7091 H   0  0  0  0  0  0
  -40.2814    0.5709  -62.4673 H   0  0  0  0  0  0
  -40.6954    2.2167  -61.9581 H   0  0  0  0  0  0
  -43.2499    3.0033  -62.6747 H   0  0  0  0  0  0
  -44.1627    1.7647  -63.5538 H   0  0  0  0  0  0
  -39.3276    2.3104  -63.9656 H   0  0  0  0  0  0
  -40.3712    1.1681  -64.8211 H   0  0  0  0  0  0
  -42.6608    1.8714  -65.4633 H   0  0  0  0  0  0
  -43.2079    3.5021  -65.0546 H   0  0  0  0  0  0
  -41.5775   -8.5828  -54.9916 H   0  0  0  0  0  0
  -43.1145   -8.1930  -55.8021 H   0  0  0  0  0  0
  -43.0888   -9.3936  -54.5116 H   0  0  0  0  0  0
  -46.6654   -0.9500  -60.8647 H   0  0  0  0  0  0
  -46.1803   -0.6700  -59.1742 H   0  0  0  0  0  0
  -46.3600    0.7002  -60.2686 H   0  0  0  0  0  0
  -41.0201    2.9775  -66.6258 H   0  0  0  0  0  0
  -39.5853    3.6079  -65.7750 H   0  0  0  0  0  0
  -40.8217    5.6874  -65.1925 H   0  0  0  0  0  0
  -42.2625    5.0991  -66.0619 H   0  0  0  0  0  0
  -43.0356   -8.2877  -58.8271 H   0  0  0  0  0  0
  -40.8180   -2.3177  -59.7887 H   0  0  0  0  0  0
  -40.9736    6.4796  -67.3129 H   0  0  0  0  0  0
  1  2  2  0  0  0
  1  3  1  0  0  0
  1 34  1  0  0  0
  2  6  1  0  0  0
  2 35  1  0  0  0
  3  8  2  0  0  0
  3 36  1  0  0  0
  4 10  2  0  0  0
  4 11  1  0  0  0
  4 37  1  0  0  0
  5  9  2  0  0  0
  5 23  1  0  0  0
  5 38  1  0  0  0
  6  7  2  0  0  0
  6 19  1  0  0  0
  7  8  1  0  0  0
  7 28  1  0  0  0
  8 33  1  0  0  0
  9 14  1  0  0  0
  9 32  1  0  0  0
 10 24  1  0  0  0
 10 26  1  0  0  0
 11 25  2  0  0  0
 11 29  1  0  0  0
 12 20  1  0  0  0
 12 24  2  0  0  0
 12 25  1  0  0  0
 13 23  2  0  0  0
 13 29  1  0  0  0
 13 32  1  0  0  0
 14 28  1  0  0  0
 14 30  2  0  0  0
 15 17  1  0  0  0
 15 26  1  0  0  0
 15 39  1  0  0  0
 15 40  1  0  0  0
 16 18  1  0  0  0
 16 26  1  0  0  0
 16 41  1  0  0  0
 16 42  1  0  0  0
 17 27  1  0  0  0
 17 43  1  0  0  0
 17 44  1  0  0  0
 18 27  1  0  0  0
 18 45  1  0  0  0
 18 46  1  0  0  0
 19 47  1  0  0  0
 19 48  1  0  0  0
 19 49  1  0  0  0
 20 50  1  0  0  0
 20 51  1  0  0  0
 20 52  1  0  0  0
 21 22  1  0  0  0
 21 27  1  0  0  0
 21 53  1  0  0  0
 21 54  1  0  0  0
 22 31  1  0  0  0
 22 55  1  0  0  0
 22 56  1  0  0  0
 28 57  1  0  0  0
 29 58  1  0  0  0
 31 59  1  0  0  0
M  END
> <s_m_entry_id>
49

> <s_m_entry_name>
cAbl-nilotinib_nowat-posed-Dasatinib.1

> <s_m_Source_Path>
/Users/albaness/github/kinase-resistance-mutants/sensitivity-analysis/yank/input

> <s_m_Source_File>
cAbl-nilotinib_nowat-posed-Dasatinib.mol2

> <i_m_Source_File_Index>
1

$$$$
~{N}-(3-ethynylphenyl)-6,7-bis(2-methoxyethoxy)quinazolin-4-amine
                    3D
 Structure written by MMmdl.
 52 54  0  0  1  0            999 V2000
  -37.9600   -7.0006  -56.7832 C   0  0  0  0  0  0
  -38.9653   -6.6025  -57.3053 C   0  0  0  0  0  0
  -42.4423   -6.5021  -58.6309 C   0  0  0  0  0  0
  -41.2741   -6.9643  -58.0249 C   0  0  0  0  0  0
  -42.4981   -5.2040  -59.1386 C   0  0  0  0  0  0
  -40.2176   -4.8304  -58.4340 C   0  0  0  0  0  0
  -41.4148   -1.1543  -61.6695 C   0  0  0  0  0  0
  -43.5594    0.6009  -61.8601 C   0  0  0  0  0  0
  -44.4948   -1.3264  -58.9848 C   0  0  0  0  0  0
  -40.1618   -6.1284  -57.9264 C   0  0  0  0  0  0
  -42.4710   -1.2177  -60.7439 C   0  0  0  0  0  0
  -43.5608   -0.3360  -60.8296 C   0  0  0  0  0  0
  -41.3858   -4.3682  -59.0401 C   0  0  0  0  0  0
  -41.4394   -0.2082  -62.6894 C   0  0  0  0  0  0
  -42.5129    0.6703  -62.7844 C   0  0  0  0  0  0
  -42.5078   -2.1395  -59.7014 C   0  0  0  0  0  0
  -38.2971    0.3293  -67.0648 C   0  0  0  0  0  0
  -42.6051    5.2889  -63.8434 C   0  0  0  0  0  0
  -40.1649   -1.3225  -64.3597 C   0  0  0  0  0  0
  -43.6935    2.4668  -63.8014 C   0  0  0  0  0  0
  -39.0082   -1.0537  -65.3029 C   0  0  0  0  0  0
  -43.5468    3.4434  -64.9524 C   0  0  0  0  0  0
  -44.5763   -0.3880  -59.9499 N   0  0  0  0  0  0
  -43.5080   -2.2188  -58.8037 N   0  0  0  0  0  0
  -41.4425   -3.0619  -59.5511 N   0  0  0  0  0  0
  -40.4133   -0.1523  -63.5823 O   0  0  0  0  0  0
  -42.5577    1.6049  -63.7748 O   0  0  0  0  0  0
  -39.3564    0.0183  -66.1706 O   0  0  0  0  0  0
  -42.3736    4.2226  -64.7533 O   0  0  0  0  0  0
  -37.0684   -7.3533  -56.3199 H   0  0  0  0  0  0
  -43.3085   -7.1528  -58.7076 H   0  0  0  0  0  0
  -41.2461   -7.9786  -57.6340 H   0  0  0  0  0  0
  -43.4135   -4.8542  -59.6089 H   0  0  0  0  0  0
  -39.3520   -4.1748  -58.3593 H   0  0  0  0  0  0
  -40.5673   -1.8332  -61.6103 H   0  0  0  0  0  0
  -44.3916    1.2973  -61.9508 H   0  0  0  0  0  0
  -45.3160   -1.3630  -58.2794 H   0  0  0  0  0  0
  -38.5982    1.1546  -67.7146 H   0  0  0  0  0  0
  -38.0554   -0.5515  -67.6650 H   0  0  0  0  0  0
  -37.4189    0.6257  -66.4863 H   0  0  0  0  0  0
  -41.6855    5.8650  -63.7144 H   0  0  0  0  0  0
  -42.9322    4.8844  -62.8822 H   0  0  0  0  0  0
  -43.3853    5.9382  -64.2477 H   0  0  0  0  0  0
  -39.9327   -2.1438  -63.6747 H   0  0  0  0  0  0
  -41.0721   -1.5581  -64.9238 H   0  0  0  0  0  0
  -44.5882    1.8481  -63.9205 H   0  0  0  0  0  0
  -43.7396    3.0023  -62.8486 H   0  0  0  0  0  0
  -38.7879   -1.9320  -65.9177 H   0  0  0  0  0  0
  -38.1155   -0.7638  -64.7411 H   0  0  0  0  0  0
  -44.4029    4.1234  -65.0045 H   0  0  0  0  0  0
  -43.4447    2.9060  -65.8997 H   0  0  0  0  0  0
  -40.5534   -2.7031  -59.8782 H   0  0  0  0  0  0
  1  2  3  0  0  0
  1 30  1  0  0  0
  2 10  1  0  0  0
  3  4  2  0  0  0
  3  5  1  0  0  0
  3 31  1  0  0  0
  4 10  1  0  0  0
  4 32  1  0  0  0
  5 13  2  0  0  0
  5 33  1  0  0  0
  6 10  2  0  0  0
  6 13  1  0  0  0
  6 34  1  0  0  0
  7 11  2  0  0  0
  7 14  1  0  0  0
  7 35  1  0  0  0
  8 12  2  0  0  0
  8 15  1  0  0  0
  8 36  1  0  0  0
  9 23  2  0  0  0
  9 24  1  0  0  0
  9 37  1  0  0  0
 11 12  1  0  0  0
 11 16  1  0  0  0
 12 23  1  0  0  0
 13 25  1  0  0  0
 14 15  2  0  0  0
 14 26  1  0  0  0
 15 27  1  0  0  0
 16 24  2  0  0  0
 16 25  1  0  0  0
 17 28  1  0  0  0
 17 38  1  0  0  0
 17 39  1  0  0  0
 17 40  1  0  0  0
 18 29  1  0  0  0
 18 41  1  0  0  0
 18 42  1  0  0  0
 18 43  1  0  0  0
 19 21  1  0  0  0
 19 26  1  0  0  0
 19 44  1  0  0  0
 19 45  1  0  0  0
 20 22  1  0  0  0
 20 27  1  0  0  0
 20 46  1  0  0  0
 20 47  1  0  0  0
 21 28  1  0  0  0
 21 48  1  0  0  0
 21 49  1  0  0  0
 22 29  1  0  0  0
 22 50  1  0  0  0
 22 51  1  0  0  0
 25 52  1  0  0  0
M  END
> <s_m_entry_id>
50

> <s_m_entry_name>
cAbl-nilotinib_nowat-posed-Erlotinib.1

> <s_m_Source_Path>
/Users/albaness/github/kinase-resistance-mutants/sensitivity-analysis/yank/input

> <s_m_Source_File>
cAbl-nilotinib_nowat-posed-Erlotinib.mol2

> <i_m_Source_File_Index>
1

$$$$
~{N}-(3-chloro-4-fluoro-phenyl)-7-methoxy-6-(3-morpholinopropoxy)quinazolin-4-amine
                    3D
 Structure written by MMmdl.
 55 58  0  0  1  0            999 V2000
  -42.7682   -4.7942  -58.7331 C   0  0  0  0  0  0
  -42.7382   -6.0873  -58.2110 C   0  0  0  0  0  0
  -41.3234   -0.9295  -61.6591 C   0  0  0  0  0  0
  -43.4842    0.7284  -62.2057 C   0  0  0  0  0  0
  -40.3534   -4.7671  -58.8053 C   0  0  0  0  0  0
  -44.7830   -1.2332  -59.4999 C   0  0  0  0  0  0
  -42.5104   -1.0381  -60.9137 C   0  0  0  0  0  0
  -43.6098   -0.2058  -61.1804 C   0  0  0  0  0  0
  -41.5758   -4.1341  -59.0303 C   0  0  0  0  0  0
  -41.2256    0.0127  -62.6782 C   0  0  0  0  0  0
  -42.3072    0.8425  -62.9514 C   0  0  0  0  0  0
  -41.5158   -6.7203  -57.9860 C   0  0  0  0  0  0
  -40.3234   -6.0602  -58.2831 C   0  0  0  0  0  0
  -42.6735   -1.9587  -59.8824 C   0  0  0  0  0  0
  -37.5206    0.4124  -67.3476 C   0  0  0  0  0  0
  -37.4767    2.3558  -65.9264 C   0  0  0  0  0  0
  -37.9305    1.3088  -68.5126 C   0  0  0  0  0  0
  -37.8888    3.2062  -67.1246 C   0  0  0  0  0  0
  -41.7545    3.0668  -63.5859 C   0  0  0  0  0  0
  -38.5041   -1.0636  -64.7845 C   0  0  0  0  0  0
  -37.6033    0.1531  -64.9505 C   0  0  0  0  0  0
  -39.9660   -0.6913  -64.5686 C   0  0  0  0  0  0
  -44.7497   -0.3012  -60.4739 N   0  0  0  0  0  0
  -43.8001   -2.0807  -59.1555 N   0  0  0  0  0  0
  -37.9956    0.9899  -66.0826 N   0  0  0  0  0  0
  -41.6069   -2.8326  -59.5555 N   0  0  0  0  0  0
  -37.4055    2.6251  -68.3363 O   0  0  0  0  0  0
  -42.2335    1.7723  -63.9446 O   0  0  0  0  0  0
  -40.0654    0.1131  -63.4009 O   0  0  0  0  0  0
  -41.5029   -7.9631  -57.4832 F   0  0  0  0  0  0
  -38.8114   -6.8353  -58.0060 Cl  0  0  0  0  0  0
  -43.7264   -4.3102  -58.9057 H   0  0  0  0  0  0
  -43.6667   -6.6006  -57.9794 H   0  0  0  0  0  0
  -40.4676   -1.5700  -61.4591 H   0  0  0  0  0  0
  -44.3207    1.3870  -62.4345 H   0  0  0  0  0  0
  -39.4258   -4.2487  -59.0379 H   0  0  0  0  0  0
  -45.7042   -1.3050  -58.9346 H   0  0  0  0  0  0
  -37.9518   -0.5842  -67.4960 H   0  0  0  0  0  0
  -36.4275    0.3116  -67.3325 H   0  0  0  0  0  0
  -36.3816    2.3402  -65.8492 H   0  0  0  0  0  0
  -37.8756    2.8121  -65.0132 H   0  0  0  0  0  0
  -37.5252    0.9109  -69.4485 H   0  0  0  0  0  0
  -39.0209    1.3605  -68.6184 H   0  0  0  0  0  0
  -38.9779    3.3229  -67.1837 H   0  0  0  0  0  0
  -37.4533    4.2068  -67.0391 H   0  0  0  0  0  0
  -41.7458    3.7105  -64.4689 H   0  0  0  0  0  0
  -40.7459    2.9818  -63.1738 H   0  0  0  0  0  0
  -42.4191    3.4954  -62.8320 H   0  0  0  0  0  0
  -38.4267   -1.6960  -65.6777 H   0  0  0  0  0  0
  -38.1597   -1.6840  -63.9474 H   0  0  0  0  0  0
  -37.6528    0.7825  -64.0565 H   0  0  0  0  0  0
  -36.5612   -0.1463  -65.1009 H   0  0  0  0  0  0
  -40.3592   -0.1198  -65.4150 H   0  0  0  0  0  0
  -40.5794   -1.5868  -64.4267 H   0  0  0  0  0  0
  -40.6933   -2.4352  -59.7394 H   0  0  0  0  0  0
  1  2  2  0  0  0
  1  9  1  0  0  0
  1 32  1  0  0  0
  2 12  1  0  0  0
  2 33  1  0  0  0
  3  7  2  0  0  0
  3 10  1  0  0  0
  3 34  1  0  0  0
  4  8  2  0  0  0
  4 11  1  0  0  0
  4 35  1  0  0  0
  5  9  2  0  0  0
  5 13  1  0  0  0
  5 36  1  0  0  0
  6 23  2  0  0  0
  6 24  1  0  0  0
  6 37  1  0  0  0
  7  8  1  0  0  0
  7 14  1  0  0  0
  8 23  1  0  0  0
  9 26  1  0  0  0
 10 11  2  0  0  0
 10 29  1  0  0  0
 11 28  1  0  0  0
 12 13  2  0  0  0
 12 30  1  0  0  0
 13 31  1  0  0  0
 14 24  2  0  0  0
 14 26  1  0  0  0
 15 17  1  0  0  0
 15 25  1  0  0  0
 15 38  1  0  0  0
 15 39  1  0  0  0
 16 18  1  0  0  0
 16 25  1  0  0  0
 16 40  1  0  0  0
 16 41  1  0  0  0
 17 27  1  0  0  0
 17 42  1  0  0  0
 17 43  1  0  0  0
 18 27  1  0  0  0
 18 44  1  0  0  0
 18 45  1  0  0  0
 19 28  1  0  0  0
 19 46  1  0  0  0
 19 47  1  0  0  0
 19 48  1  0  0  0
 20 21  1  0  0  0
 20 22  1  0  0  0
 20 49  1  0  0  0
 20 50  1  0  0  0
 21 25  1  0  0  0
 21 51  1  0  0  0
 21 52  1  0  0  0
 22 29  1  0  0  0
 22 53  1  0  0  0
 22 54  1  0  0  0
 26 55  1  0  0  0
M  END
> <s_m_entry_id>
51

> <s_m_entry_name>
cAbl-nilotinib_nowat-posed-Gefitinib.1

> <s_m_Source_Path>
/Users/albaness/github/kinase-resistance-mutants/sensitivity-analysis/yank/input

> <s_m_Source_File>
cAbl-nilotinib_nowat-posed-Gefitinib.mol2

> <i_m_Source_File_Index>
1

$$$$
4-[(4-methylpiperazin-1-yl)methyl]-~{N}-[4-methyl-3-[[4-(3-pyridyl)pyrimidin-2-yl]amino]phenyl]benzamide
                    3D
 Structure written by MMmdl.
 68 72  0  0  1  0            999 V2000
  -43.6707  -14.2267  -56.8517 C   0  0  0  0  0  0
  -43.0946  -13.2466  -57.6521 C   0  0  0  0  0  0
  -44.0192   -3.2050  -60.5131 C   0  0  0  0  0  0
  -42.5639   -1.7273  -59.2741 C   0  0  0  0  0  0
  -44.7058   -2.1025  -61.0217 C   0  0  0  0  0  0
  -43.2504   -0.6247  -59.7827 C   0  0  0  0  0  0
  -37.6973   -5.3013  -57.4710 C   0  0  0  0  0  0
  -38.6416   -4.4022  -57.9663 C   0  0  0  0  0  0
  -42.4157  -10.8563  -59.2206 C   0  0  0  0  0  0
  -40.2831   -6.1729  -58.0510 C   0  0  0  0  0  0
  -43.8171  -13.9574  -55.5005 C   0  0  0  0  0  0
  -41.7723   -9.8302  -59.8819 C   0  0  0  0  0  0
  -42.8786  -11.8722  -55.7232 C   0  0  0  0  0  0
  -42.6881  -12.0440  -57.0848 C   0  0  0  0  0  0
  -42.9483   -3.0174  -59.6393 C   0  0  0  0  0  0
  -44.3214   -0.8124  -60.6565 C   0  0  0  0  0  0
  -38.0458   -6.6362  -57.2657 C   0  0  0  0  0  0
  -39.9345   -4.8380  -58.2563 C   0  0  0  0  0  0
  -39.3387   -7.0720  -57.5557 C   0  0  0  0  0  0
  -42.0864  -11.0075  -57.8890 C   0  0  0  0  0  0
  -40.6391   -9.2580  -57.9963 C   0  0  0  0  0  0
  -42.2314   -4.1663  -59.1088 C   0  0  0  0  0  0
  -45.3727    1.7395  -64.7099 C   0  0  0  0  0  0
  -43.0321    1.5800  -64.1508 C   0  0  0  0  0  0
  -45.7405    1.4577  -63.2491 C   0  0  0  0  0  0
  -43.4005    1.2996  -62.6899 C   0  0  0  0  0  0
  -37.0145   -7.5775  -56.7339 C   0  0  0  0  0  0
  -43.7124    2.6613  -66.1963 C   0  0  0  0  0  0
  -45.0600    0.3741  -61.2051 C   0  0  0  0  0  0
  -43.4345  -12.8012  -54.9135 N   0  0  0  0  0  0
  -40.8749   -9.0088  -59.2985 N   0  0  0  0  0  0
  -41.1989  -10.2234  -57.2426 N   0  0  0  0  0  0
  -44.0634    2.3970  -64.8023 N   0  0  0  0  0  0
  -44.7090    0.6405  -62.5986 N   0  0  0  0  0  0
  -39.7082   -8.4203  -57.3547 N   0  0  0  0  0  0
  -40.8937   -3.9236  -58.7602 N   0  0  0  0  0  0
  -42.7664   -5.2794  -59.0111 O   0  0  0  0  0  0
  -43.9960  -15.1716  -57.2717 H   0  0  0  0  0  0
  -42.9685  -13.4337  -58.7156 H   0  0  0  0  0  0
  -44.3267   -4.2062  -60.8040 H   0  0  0  0  0  0
  -41.7310   -1.5691  -58.5939 H   0  0  0  0  0  0
  -45.5388   -2.2579  -61.7021 H   0  0  0  0  0  0
  -42.9438    0.3770  -59.4932 H   0  0  0  0  0  0
  -36.6926   -4.9521  -57.2477 H   0  0  0  0  0  0
  -38.3595   -3.3639  -58.1223 H   0  0  0  0  0  0
  -43.1301  -11.4934  -59.7270 H   0  0  0  0  0  0
  -41.2916   -6.5126  -58.2776 H   0  0  0  0  0  0
  -44.2605  -14.6896  -54.8333 H   0  0  0  0  0  0
  -41.9664   -9.6343  -60.9311 H   0  0  0  0  0  0
  -42.5840  -10.9559  -55.2195 H   0  0  0  0  0  0
  -45.3806    0.8005  -65.2801 H   0  0  0  0  0  0
  -46.1446    2.3887  -65.1407 H   0  0  0  0  0  0
  -42.0728    2.1114  -64.1684 H   0  0  0  0  0  0
  -42.8893    0.6305  -64.6844 H   0  0  0  0  0  0
  -45.8834    2.4069  -62.7147 H   0  0  0  0  0  0
  -46.6998    0.9263  -63.2316 H   0  0  0  0  0  0
  -42.6282    0.6512  -62.2583 H   0  0  0  0  0  0
  -43.3939    2.2390  -62.1204 H   0  0  0  0  0  0
  -37.0439   -7.5928  -55.6385 H   0  0  0  0  0  0
  -37.1812   -8.5968  -57.1028 H   0  0  0  0  0  0
  -36.0074   -7.2827  -57.0532 H   0  0  0  0  0  0
  -42.7365    3.1505  -66.2517 H   0  0  0  0  0  0
  -44.4595    3.3132  -66.6571 H   0  0  0  0  0  0
  -43.6692    1.7250  -66.7592 H   0  0  0  0  0  0
  -46.1423    0.2121  -61.1549 H   0  0  0  0  0  0
  -44.8391    1.2767  -60.6258 H   0  0  0  0  0  0
  -39.2023   -8.8701  -56.5985 H   0  0  0  0  0  0
  -40.5704   -2.9676  -58.8854 H   0  0  0  0  0  0
  1  2  2  0  0  0
  1 11  1  0  0  0
  1 38  1  0  0  0
  2 14  1  0  0  0
  2 39  1  0  0  0
  3  5  2  0  0  0
  3 15  1  0  0  0
  3 40  1  0  0  0
  4  6  1  0  0  0
  4 15  2  0  0  0
  4 41  1  0  0  0
  5 16  1  0  0  0
  5 42  1  0  0  0
  6 16  2  0  0  0
  6 43  1  0  0  0
  7  8  2  0  0  0
  7 17  1  0  0  0
  7 44  1  0  0  0
  8 18  1  0  0  0
  8 45  1  0  0  0
  9 12  2  0  0  0
  9 20  1  0  0  0
  9 46  1  0  0  0
 10 18  2  0  0  0
 10 19  1  0  0  0
 10 47  1  0  0  0
 11 30  2  0  0  0
 11 48  1  0  0  0
 12 31  1  0  0  0
 12 49  1  0  0  0
 13 14  2  0  0  0
 13 30  1  0  0  0
 13 50  1  0  0  0
 14 20  1  0  0  0
 15 22  1  0  0  0
 16 29  1  0  0  0
 17 19  2  0  0  0
 17 27  1  0  0  0
 18 36  1  0  0  0
 19 35  1  0  0  0
 20 32  2  0  0  0
 21 31  2  0  0  0
 21 32  1  0  0  0
 21 35  1  0  0  0
 22 36  1  0  0  0
 22 37  2  0  0  0
 23 25  1  0  0  0
 23 33  1  0  0  0
 23 51  1  0  0  0
 23 52  1  0  0  0
 24 26  1  0  0  0
 24 33  1  0  0  0
 24 53  1  0  0  0
 24 54  1  0  0  0
 25 34  1  0  0  0
 25 55  1  0  0  0
 25 56  1  0  0  0
 26 34  1  0  0  0
 26 57  1  0  0  0
 26 58  1  0  0  0
 27 59  1  0  0  0
 27 60  1  0  0  0
 27 61  1  0  0  0
 28 33  1  0  0  0
 28 62  1  0  0  0
 28 63  1  0  0  0
 28 64  1  0  0  0
 29 34  1  0  0  0
 29 65  1  0  0  0
 29 66  1  0  0  0
 35 67  1  0  0  0
 36 68  1  0  0  0
M  END
> <s_m_entry_id>
52

> <s_m_entry_name>
cAbl-nilotinib_nowat-posed-Imatinib.1

> <s_m_Source_Path>
/Users/albaness/github/kinase-resistance-mutants/sensitivity-analysis/yank/input

> <s_m_Source_File>
cAbl-nilotinib_nowat-posed-Imatinib.mol2

> <i_m_Source_File_Index>
1

$$$$
4-methyl-~{N}-[3-(4-methylimidazol-1-yl)-5-(trifluoromethyl)phenyl]-3-[[4-(3-pyridyl)pyrimidin-2-yl]amino]benzamide
                    3D
 Structure written by MMmdl.
 61 65  0  0  1  0            999 V2000
  -43.6443  -14.7517  -56.4272 C   0  0  0  0  0  0
  -43.1125  -13.7560  -57.2460 C   0  0  0  0  0  0
  -39.6230   -4.3969  -58.3238 C   0  0  0  0  0  0
  -38.7129   -5.2549  -57.6980 C   0  0  0  0  0  0
  -41.9748  -11.5091  -58.9239 C   0  0  0  0  0  0
  -41.3663   -6.0202  -57.9608 C   0  0  0  0  0  0
  -44.0450    0.4235  -61.0384 C   0  0  0  0  0  0
  -43.7701   -1.5436  -59.6645 C   0  0  0  0  0  0
  -41.8989   -0.6918  -60.9350 C   0  0  0  0  0  0
  -43.8035  -14.4736  -55.0845 C   0  0  0  0  0  0
  -41.4324  -10.4050  -59.5467 C   0  0  0  0  0  0
  -42.9553  -12.3538  -55.3523 C   0  0  0  0  0  0
  -40.8574    1.4547  -62.7264 C   0  0  0  0  0  0
  -42.8610    2.3083  -62.9845 C   0  0  0  0  0  0
  -42.7424  -12.5056  -56.7279 C   0  0  0  0  0  0
  -40.9614   -4.7706  -58.4560 C   0  0  0  0  0  0
  -39.1178   -6.4970  -57.1907 C   0  0  0  0  0  0
  -44.5749   -0.5013  -60.1342 C   0  0  0  0  0  0
  -42.7037    0.3424  -61.4361 C   0  0  0  0  0  0
  -40.4586   -6.8900  -57.3348 C   0  0  0  0  0  0
  -42.4358   -1.6553  -60.0682 C   0  0  0  0  0  0
  -42.1694  -11.4196  -57.5548 C   0  0  0  0  0  0
  -40.8296    2.5446  -63.5697 C   0  0  0  0  0  0
  -41.2912   -9.2502  -57.5692 C   0  0  0  0  0  0
  -42.0052   -3.9000  -59.0727 C   0  0  0  0  0  0
  -38.1166   -7.3898  -56.5144 C   0  0  0  0  0  0
  -39.6750    3.1663  -64.2442 C   0  0  0  0  0  0
  -45.9936   -0.3867  -59.6602 C   0  0  0  0  0  0
  -43.4728  -13.2950  -54.5236 N   0  0  0  0  0  0
  -41.0854   -9.2752  -58.9043 N   0  0  0  0  0  0
  -42.0863    3.0587  -63.7334 N   0  0  0  0  0  0
  -41.8245  -10.2903  -56.8832 N   0  0  0  0  0  0
  -42.1699    1.3096  -62.3314 N   0  0  0  0  0  0
  -40.9160   -8.1177  -56.8299 N   0  0  0  0  0  0
  -41.5805   -2.6989  -59.6305 N   0  0  0  0  0  0
  -43.1657   -4.3059  -59.0671 O   0  0  0  0  0  0
  -46.5364    0.8466  -59.8595 F   0  0  0  0  0  0
  -46.8234   -1.2675  -60.2799 F   0  0  0  0  0  0
  -46.1211   -0.6248  -58.3242 F   0  0  0  0  0  0
  -43.9218  -15.7161  -56.8368 H   0  0  0  0  0  0
  -42.9914  -13.9917  -58.2995 H   0  0  0  0  0  0
  -39.2458   -3.4453  -58.6826 H   0  0  0  0  0  0
  -37.6771   -4.9374  -57.6038 H   0  0  0  0  0  0
  -42.2267  -12.3816  -59.5122 H   0  0  0  0  0  0
  -42.4048   -6.3370  -58.0444 H   0  0  0  0  0  0
  -44.6977    1.2155  -61.3917 H   0  0  0  0  0  0
  -44.2119   -2.2478  -58.9670 H   0  0  0  0  0  0
  -40.8569   -0.7883  -61.2270 H   0  0  0  0  0  0
  -44.2130  -15.2137  -54.4055 H   0  0  0  0  0  0
  -41.2530  -10.4016  -60.6164 H   0  0  0  0  0  0
  -42.7133  -11.4270  -54.8381 H   0  0  0  0  0  0
  -40.0569    0.8208  -62.3729 H   0  0  0  0  0  0
  -43.9292    2.4484  -62.8988 H   0  0  0  0  0  0
  -38.4404   -7.6168  -55.4935 H   0  0  0  0  0  0
  -38.0012   -8.3226  -57.0758 H   0  0  0  0  0  0
  -37.1325   -6.9144  -56.4503 H   0  0  0  0  0  0
  -39.6138    2.8342  -65.2840 H   0  0  0  0  0  0
  -39.7744    4.2568  -64.2331 H   0  0  0  0  0  0
  -38.7385    2.9110  -63.7389 H   0  0  0  0  0  0
  -40.9867   -8.1954  -55.8230 H   0  0  0  0  0  0
  -40.5943   -2.5619  -59.8279 H   0  0  0  0  0  0
  1  2  2  0  0  0
  1 10  1  0  0  0
  1 40  1  0  0  0
  2 15  1  0  0  0
  2 41  1  0  0  0
  3  4  2  0  0  0
  3 16  1  0  0  0
  3 42  1  0  0  0
  4 17  1  0  0  0
  4 43  1  0  0  0
  5 11  2  0  0  0
  5 22  1  0  0  0
  5 44  1  0  0  0
  6 16  2  0  0  0
  6 20  1  0  0  0
  6 45  1  0  0  0
  7 18  2  0  0  0
  7 19  1  0  0  0
  7 46  1  0  0  0
  8 18  1  0  0  0
  8 21  2  0  0  0
  8 47  1  0  0  0
  9 19  2  0  0  0
  9 21  1  0  0  0
  9 48  1  0  0  0
 10 29  2  0  0  0
 10 49  1  0  0  0
 11 30  1  0  0  0
 11 50  1  0  0  0
 12 15  2  0  0  0
 12 29  1  0  0  0
 12 51  1  0  0  0
 13 23  2  0  0  0
 13 33  1  0  0  0
 13 52  1  0  0  0
 14 31  2  0  0  0
 14 33  1  0  0  0
 14 53  1  0  0  0
 15 22  1  0  0  0
 16 25  1  0  0  0
 17 20  2  0  0  0
 17 26  1  0  0  0
 18 28  1  0  0  0
 19 33  1  0  0  0
 20 34  1  0  0  0
 21 35  1  0  0  0
 22 32  2  0  0  0
 23 27  1  0  0  0
 23 31  1  0  0  0
 24 30  2  0  0  0
 24 32  1  0  0  0
 24 34  1  0  0  0
 25 35  1  0  0  0
 25 36  2  0  0  0
 26 54  1  0  0  0
 26 55  1  0  0  0
 26 56  1  0  0  0
 27 57  1  0  0  0
 27 58  1  0  0  0
 27 59  1  0  0  0
 28 37  1  0  0  0
 28 38  1  0  0  0
 28 39  1  0  0  0
 34 60  1  0  0  0
 35 61  1  0  0  0
M  END
> <s_m_entry_id>
53

> <s_m_entry_name>
cAbl-nilotinib_nowat-posed-Nilotinib.1

> <s_m_Source_Path>
/Users/albaness/github/kinase-resistance-mutants/sensitivity-analysis/yank/input

> <s_m_Source_File>
cAbl-nilotinib_nowat-posed-Nilotinib.mol2

> <i_m_Source_File_Index>
1

$$$$
3-(2-imidazo[1,2-b]pyridazin-3-ylethynyl)-4-methyl-~{N}-[4-[(4-methylpiperazin-1-yl)methyl]-3-(trifluoromethyl)phenyl]benzamide
                    3D
 Structure written by MMmdl.
 66 70  0  0  1  0            999 V2000
  -40.8739   -8.7122  -58.2078 C   0  0  0  0  0  0
  -41.2178   -9.8632  -58.2181 C   0  0  0  0  0  0
  -39.7089   -4.6553  -58.1958 C   0  0  0  0  0  0
  -38.8892   -5.6103  -57.5945 C   0  0  0  0  0  0
  -41.4426    0.0911  -62.0609 C   0  0  0  0  0  0
  -40.8983   -1.0392  -61.4512 C   0  0  0  0  0  0
  -41.2841   -6.3857  -58.7970 C   0  0  0  0  0  0
  -42.9376   -1.3419  -60.1915 C   0  0  0  0  0  0
  -41.3869  -12.1888  -59.1889 C   0  0  0  0  0  0
  -40.4643   -7.3408  -58.1957 C   0  0  0  0  0  0
  -41.6274  -11.2337  -58.2305 C   0  0  0  0  0  0
  -40.9064   -5.0430  -58.7970 C   0  0  0  0  0  0
  -39.2669   -6.9531  -57.5945 C   0  0  0  0  0  0
  -42.7344    0.5050  -61.7359 C   0  0  0  0  0  0
  -43.4819   -0.2115  -60.8012 C   0  0  0  0  0  0
  -41.6457   -1.7557  -60.5165 C   0  0  0  0  0  0
  -42.5270  -13.1814  -57.6778 C   0  0  0  0  0  0
  -43.2610  -14.0397  -56.8260 C   0  0  0  0  0  0
  -43.7538  -13.5651  -55.6761 C   0  0  0  0  0  0
  -43.4877  -12.1385  -55.3726 C   0  0  0  0  0  0
  -41.7711   -4.0331  -59.4311 C   0  0  0  0  0  0
  -41.9454    3.9403  -65.1444 C   0  0  0  0  0  0
  -41.9830    1.6647  -65.9419 C   0  0  0  0  0  0
  -42.7678    3.5245  -63.9198 C   0  0  0  0  0  0
  -42.8043    1.2491  -64.7165 C   0  0  0  0  0  0
  -38.3629   -7.9490  -56.9413 C   0  0  0  0  0  0
  -41.4485    3.4642  -67.4556 C   0  0  0  0  0  0
  -43.2986    1.7250  -62.4047 C   0  0  0  0  0  0
  -44.8677    0.2117  -60.4392 C   0  0  0  0  0  0
  -41.9460  -13.3921  -58.8416 N   0  0  0  0  0  0
  -42.8236  -11.3069  -56.1135 N   0  0  0  0  0  0
  -42.3581  -11.8716  -57.2631 N   0  0  0  0  0  0
  -42.2355    3.0684  -66.2893 N   0  0  0  0  0  0
  -42.5134    2.1212  -63.5720 N   0  0  0  0  0  0
  -41.1024   -2.8874  -59.9079 N   0  0  0  0  0  0
  -42.9883   -4.1919  -59.4936 O   0  0  0  0  0  0
  -45.4604   -0.5969  -59.5126 F   0  0  0  0  0  0
  -44.9328    1.4687  -59.9110 F   0  0  0  0  0  0
  -45.7094    0.2195  -61.5126 F   0  0  0  0  0  0
  -39.4046   -3.6116  -58.1886 H   0  0  0  0  0  0
  -37.9583   -5.2973  -57.1289 H   0  0  0  0  0  0
  -40.8519    0.6433  -62.7872 H   0  0  0  0  0  0
  -39.8903   -1.3514  -61.7117 H   0  0  0  0  0  0
  -42.2200   -6.6822  -59.2673 H   0  0  0  0  0  0
  -43.5213   -1.9001  -59.4626 H   0  0  0  0  0  0
  -40.8388  -12.0767  -60.1139 H   0  0  0  0  0  0
  -43.4172  -15.0737  -57.1126 H   0  0  0  0  0  0
  -44.3229  -14.1633  -54.9779 H   0  0  0  0  0  0
  -43.9081  -11.7798  -54.4190 H   0  0  0  0  0  0
  -42.1535    4.9907  -65.3892 H   0  0  0  0  0  0
  -40.8820    3.8703  -64.8854 H   0  0  0  0  0  0
  -40.9204    1.5264  -65.7075 H   0  0  0  0  0  0
  -42.2196    1.0031  -66.7865 H   0  0  0  0  0  0
  -42.5330    4.1865  -63.0753 H   0  0  0  0  0  0
  -43.8302    3.6610  -64.1556 H   0  0  0  0  0  0
  -43.8680    1.3195  -64.9748 H   0  0  0  0  0  0
  -42.5967    0.1984  -64.4717 H   0  0  0  0  0  0
  -38.6264   -8.0625  -55.8840 H   0  0  0  0  0  0
  -38.4371   -8.9284  -57.4286 H   0  0  0  0  0  0
  -37.3146   -7.6351  -57.0102 H   0  0  0  0  0  0
  -41.6731    2.8081  -68.3007 H   0  0  0  0  0  0
  -40.3804    3.3963  -67.2316 H   0  0  0  0  0  0
  -41.6826    4.4942  -67.7378 H   0  0  0  0  0  0
  -44.3268    1.5432  -62.7358 H   0  0  0  0  0  0
  -43.3245    2.5749  -61.7146 H   0  0  0  0  0  0
  -40.0824   -2.8855  -59.7922 H   0  0  0  0  0  0
  1  2  3  0  0  0
  1 10  1  0  0  0
  2 11  1  0  0  0
  3  4  2  0  0  0
  3 12  1  0  0  0
  3 40  1  0  0  0
  4 13  1  0  0  0
  4 41  1  0  0  0
  5  6  2  0  0  0
  5 14  1  0  0  0
  5 42  1  0  0  0
  6 16  1  0  0  0
  6 43  1  0  0  0
  7 10  1  0  0  0
  7 12  2  0  0  0
  7 44  1  0  0  0
  8 15  1  0  0  0
  8 16  2  0  0  0
  8 45  1  0  0  0
  9 11  2  0  0  0
  9 30  1  0  0  0
  9 46  1  0  0  0
 10 13  2  0  0  0
 11 32  1  0  0  0
 12 21  1  0  0  0
 13 26  1  0  0  0
 14 15  2  0  0  0
 14 28  1  0  0  0
 15 29  1  0  0  0
 16 35  1  0  0  0
 17 18  1  0  0  0
 17 30  2  0  0  0
 17 32  1  0  0  0
 18 19  2  0  0  0
 18 47  1  0  0  0
 19 20  1  0  0  0
 19 48  1  0  0  0
 20 31  2  0  0  0
 20 49  1  0  0  0
 21 35  1  0  0  0
 21 36  2  0  0  0
 22 24  1  0  0  0
 22 33  1  0  0  0
 22 50  1  0  0  0
 22 51  1  0  0  0
 23 25  1  0  0  0
 23 33  1  0  0  0
 23 52  1  0  0  0
 23 53  1  0  0  0
 24 34  1  0  0  0
 24 54  1  0  0  0
 24 55  1  0  0  0
 25 34  1  0  0  0
 25 56  1  0  0  0
 25 57  1  0  0  0
 26 58  1  0  0  0
 26 59  1  0  0  0
 26 60  1  0  0  0
 27 33  1  0  0  0
 27 61  1  0  0  0
 27 62  1  0  0  0
 27 63  1  0  0  0
 28 34  1  0  0  0
 28 64  1  0  0  0
 28 65  1  0  0  0
 29 37  1  0  0  0
 29 38  1  0  0  0
 29 39  1  0  0  0
 31 32  1  0  0  0
 35 66  1  0  0  0
M  END
> <s_m_entry_id>
54

> <s_m_entry_name>
cAbl-nilotinib_nowat-posed-Ponatinib.1

> <s_m_Source_Path>
/Users/albaness/github/kinase-resistance-mutants/sensitivity-analysis/yank/input

> <s_m_Source_File>
cAbl-nilotinib_nowat-posed-Ponatinib.mol2

> <i_m_Source_File_Index>
1

$$$$
