~{N}-methyl-2-[[3-[(~{E})-2-(2-pyridyl)vinyl]-1~{H}-indazol-6-yl]sulfanyl]benzamide
                    3D
 Structure written by MMmdl.
 46 49  0  0  1  0            999 V2000
  -43.9179   -8.9494  -62.0750 C   0  0  0  0  0  0
  -43.7743  -10.3367  -62.0839 C   0  0  0  0  0  0
  -43.7340  -20.3210  -55.6037 C   0  0  0  0  0  0
  -45.1119  -20.4130  -55.4414 C   0  0  0  0  0  0
  -42.4506  -14.1168  -58.2075 C   0  0  0  0  0  0
  -43.0040   -8.1580  -61.3790 C   0  0  0  0  0  0
  -42.7169  -10.9329  -61.3969 C   0  0  0  0  0  0
  -41.7397  -13.2820  -59.0788 C   0  0  0  0  0  0
  -43.1350  -19.0715  -55.7183 C   0  0  0  0  0  0
  -41.7060  -11.4865  -57.4346 C   0  0  0  0  0  0
  -45.8401  -19.2350  -55.4003 C   0  0  0  0  0  0
  -42.7909  -13.6257  -56.9360 C   0  0  0  0  0  0
  -41.9466   -8.7542  -60.6920 C   0  0  0  0  0  0
  -42.4150  -12.3349  -56.5814 C   0  0  0  0  0  0
  -41.3747  -11.9895  -58.6970 C   0  0  0  0  0  0
  -41.8030  -10.1416  -60.7009 C   0  0  0  0  0  0
  -43.9517  -17.9535  -55.6649 C   0  0  0  0  0  0
  -43.4729  -14.1156  -55.8015 C   0  0  0  0  0  0
  -43.3646  -16.6069  -55.7811 C   0  0  0  0  0  0
  -44.0415  -15.4128  -55.7082 C   0  0  0  0  0  0
  -41.0214   -7.8787  -59.9811 C   0  0  0  0  0  0
  -40.0541   -7.2646  -57.7554 C   0  0  0  0  0  0
  -45.2936  -18.0032  -55.5082 N   0  0  0  0  0  0
  -43.5324  -13.2258  -54.8082 N   0  0  0  0  0  0
  -42.8852  -12.1598  -55.3078 N   0  0  0  0  0  0
  -40.9092   -8.0666  -58.6006 N   0  0  0  0  0  0
  -40.3912   -7.0022  -60.5944 O   0  0  0  0  0  0
  -40.4683  -10.9570  -59.8385 S   0  0  0  0  0  0
  -44.7422   -8.4854  -62.6090 H   0  0  0  0  0  0
  -44.4865  -10.9528  -62.6250 H   0  0  0  0  0  0
  -43.1286  -21.2217  -55.6395 H   0  0  0  0  0  0
  -45.5999  -21.3765  -55.3507 H   0  0  0  0  0  0
  -42.7272  -15.1195  -58.5191 H   0  0  0  0  0  0
  -43.1280   -7.0777  -61.3796 H   0  0  0  0  0  0
  -42.6251  -12.0161  -61.4161 H   0  0  0  0  0  0
  -41.4778  -13.6653  -60.0629 H   0  0  0  0  0  0
  -42.0600  -18.9919  -55.8450 H   0  0  0  0  0  0
  -41.4309  -10.4848  -57.1205 H   0  0  0  0  0  0
  -46.9180  -19.2521  -55.2768 H   0  0  0  0  0  0
  -42.2847  -16.5847  -55.9059 H   0  0  0  0  0  0
  -45.1362  -15.4831  -55.5297 H   0  0  0  0  0  0
  -39.0847   -7.7537  -57.6296 H   0  0  0  0  0  0
  -40.5119   -7.1326  -56.7712 H   0  0  0  0  0  0
  -39.8961   -6.2799  -58.2033 H   0  0  0  0  0  0
  -42.7978  -11.3372  -54.7242 H   0  0  0  0  0  0
  -41.4955   -8.7564  -58.1422 H   0  0  0  0  0  0
  1  2  2  0  0  0
  1  6  1  0  0  0
  1 29  1  0  0  0
  2  7  1  0  0  0
  2 30  1  0  0  0
  3  4  2  0  0  0
  3  9  1  0  0  0
  3 31  1  0  0  0
  4 11  1  0  0  0
  4 32  1  0  0  0
  5  8  2  0  0  0
  5 12  1  0  0  0
  5 33  1  0  0  0
  6 13  2  0  0  0
  6 34  1  0  0  0
  7 16  2  0  0  0
  7 35  1  0  0  0
  8 15  1  0  0  0
  8 36  1  0  0  0
  9 17  2  0  0  0
  9 37  1  0  0  0
 10 14  1  0  0  0
 10 15  2  0  0  0
 10 38  1  0  0  0
 11 23  2  0  0  0
 11 39  1  0  0  0
 12 14  2  0  0  0
 12 18  1  0  0  0
 13 16  1  0  0  0
 13 21  1  0  0  0
 14 25  1  0  0  0
 15 28  1  0  0  0
 16 28  1  0  0  0
 17 19  1  0  0  0
 17 23  1  0  0  0
 18 20  1  0  0  0
 18 24  2  0  0  0
 19 20  2  0  0  0
 19 40  1  0  0  0
 20 41  1  0  0  0
 21 26  1  0  0  0
 21 27  2  0  0  0
 22 26  1  0  0  0
 22 42  1  0  0  0
 22 43  1  0  0  0
 22 44  1  0  0  0
 24 25  1  0  0  0
 25 45  1  0  0  0
 26 46  1  0  0  0
M  END
> <s_m_entry_id>
23

> <s_m_entry_name>
cAbl-erlotinib_nowat-posed-Axitinib.1

> <s_m_Source_Path>
/Users/albaness/github/kinase-resistance-mutants/sensitivity-analysis/yank/input

> <s_m_Source_File>
cAbl-erlotinib_nowat-posed-Axitinib.mol2

> <i_m_Source_File_Index>
1

$$$$
4-(2,4-dichloro-5-methoxy-anilino)-6-methoxy-7-[3-(4-methylpiperazin-1-yl)propoxy]quinoline-3-carbonitrile
                    3D
 Structure written by MMmdl.
 65 68  0  0  1  0            999 V2000
  -42.6511   -9.3392  -56.0005 C   0  0  0  0  0  0
  -42.5508  -14.0351  -57.8734 C   0  0  0  0  0  0
  -43.3785  -14.8117  -55.3579 C   0  0  0  0  0  0
  -40.3632   -9.3706  -57.9327 C   0  0  0  0  0  0
  -40.9785   -8.3017  -60.4362 C   0  0  0  0  0  0
  -43.1535  -11.3242  -54.7729 C   0  0  0  0  0  0
  -42.7367  -10.7679  -55.9698 C   0  0  0  0  0  0
  -42.7120  -13.0368  -56.8707 C   0  0  0  0  0  0
  -43.1431  -13.4668  -55.5968 C   0  0  0  0  0  0
  -41.3165  -10.0235  -58.7401 C   0  0  0  0  0  0
  -42.4838  -11.6275  -57.0563 C   0  0  0  0  0  0
  -42.8108  -15.3910  -57.6232 C   0  0  0  0  0  0
  -43.2146  -15.7844  -56.3451 C   0  0  0  0  0  0
  -39.7387   -8.1857  -58.3505 C   0  0  0  0  0  0
  -41.5990   -9.4715  -60.0020 C   0  0  0  0  0  0
  -40.0612   -7.6606  -59.6075 C   0  0  0  0  0  0
  -48.0255  -19.6016  -57.2313 C   0  0  0  0  0  0
  -48.1786  -19.2674  -54.8515 C   0  0  0  0  0  0
  -46.5659  -20.0364  -57.0733 C   0  0  0  0  0  0
  -46.7159  -19.6999  -54.6938 C   0  0  0  0  0  0
  -50.1857  -19.4870  -56.1685 C   0  0  0  0  0  0
  -42.7802  -16.0090  -59.9214 C   0  0  0  0  0  0
  -38.6086   -7.8518  -56.2677 C   0  0  0  0  0  0
  -43.7312  -19.0595  -54.7269 C   0  0  0  0  0  0
  -44.5372  -19.8072  -55.7970 C   0  0  0  0  0  0
  -43.7908  -17.5367  -54.8304 C   0  0  0  0  0  0
  -42.6237   -8.1786  -55.9932 N   0  0  0  0  0  0
  -43.3485  -12.6362  -54.5724 N   0  0  0  0  0  0
  -48.7937  -19.9073  -56.0195 N   0  0  0  0  0  0
  -45.9439  -19.3943  -55.9060 N   0  0  0  0  0  0
  -42.0202  -11.1750  -58.3189 N   0  0  0  0  0  0
  -42.6887  -16.3932  -58.5534 O   0  0  0  0  0  0
  -38.8246   -7.4731  -57.6197 O   0  0  0  0  0  0
  -43.4300  -17.1264  -56.1506 O   0  0  0  0  0  0
  -42.7425  -10.2177  -61.0638 Cl  0  0  0  0  0  0
  -39.3452   -6.1948  -60.1766 Cl  0  0  0  0  0  0
  -42.2234  -13.7397  -58.8664 H   0  0  0  0  0  0
  -43.7064  -15.0868  -54.3574 H   0  0  0  0  0  0
  -40.1231   -9.7965  -56.9621 H   0  0  0  0  0  0
  -41.2184   -7.8857  -61.4119 H   0  0  0  0  0  0
  -43.3628  -10.7082  -53.9029 H   0  0  0  0  0  0
  -48.0678  -18.5288  -57.4637 H   0  0  0  0  0  0
  -48.4530  -20.1383  -58.0868 H   0  0  0  0  0  0
  -48.7217  -19.5539  -53.9427 H   0  0  0  0  0  0
  -48.2315  -18.1729  -54.9310 H   0  0  0  0  0  0
  -46.5115  -21.1304  -56.9879 H   0  0  0  0  0  0
  -46.0252  -19.7533  -57.9847 H   0  0  0  0  0  0
  -46.3070  -19.1613  -53.8321 H   0  0  0  0  0  0
  -46.6687  -20.7722  -54.4613 H   0  0  0  0  0  0
  -50.7654  -19.7544  -55.2781 H   0  0  0  0  0  0
  -50.6539  -20.0020  -57.0147 H   0  0  0  0  0  0
  -50.2779  -18.4066  -56.3286 H   0  0  0  0  0  0
  -42.8922  -16.9217  -60.5156 H   0  0  0  0  0  0
  -41.8623  -15.5112  -60.2475 H   0  0  0  0  0  0
  -43.6600  -15.3834  -60.1100 H   0  0  0  0  0  0
  -37.9345   -7.1115  -55.8241 H   0  0  0  0  0  0
  -38.1177   -8.8274  -56.2091 H   0  0  0  0  0  0
  -39.5388   -7.8364  -55.6910 H   0  0  0  0  0  0
  -44.0458  -19.3647  -53.7224 H   0  0  0  0  0  0
  -42.6835  -19.3688  -54.8312 H   0  0  0  0  0  0
  -44.0398  -19.6349  -56.7606 H   0  0  0  0  0  0
  -44.4648  -20.8850  -55.6012 H   0  0  0  0  0  0
  -44.8010  -17.1799  -54.5973 H   0  0  0  0  0  0
  -43.0841  -17.1360  -54.0935 H   0  0  0  0  0  0
  -42.3578  -11.7279  -59.1008 H   0  0  0  0  0  0
  1  7  1  0  0  0
  1 27  3  0  0  0
  2  8  2  0  0  0
  2 12  1  0  0  0
  2 37  1  0  0  0
  3  9  2  0  0  0
  3 13  1  0  0  0
  3 38  1  0  0  0
  4 10  2  0  0  0
  4 14  1  0  0  0
  4 39  1  0  0  0
  5 15  2  0  0  0
  5 16  1  0  0  0
  5 40  1  0  0  0
  6  7  1  0  0  0
  6 28  2  0  0  0
  6 41  1  0  0  0
  7 11  2  0  0  0
  8  9  1  0  0  0
  8 11  1  0  0  0
  9 28  1  0  0  0
 10 15  1  0  0  0
 10 31  1  0  0  0
 11 31  1  0  0  0
 12 13  2  0  0  0
 12 32  1  0  0  0
 13 34  1  0  0  0
 14 16  2  0  0  0
 14 33  1  0  0  0
 15 35  1  0  0  0
 16 36  1  0  0  0
 17 19  1  0  0  0
 17 29  1  0  0  0
 17 42  1  0  0  0
 17 43  1  0  0  0
 18 20  1  0  0  0
 18 29  1  0  0  0
 18 44  1  0  0  0
 18 45  1  0  0  0
 19 30  1  0  0  0
 19 46  1  0  0  0
 19 47  1  0  0  0
 20 30  1  0  0  0
 20 48  1  0  0  0
 20 49  1  0  0  0
 21 29  1  0  0  0
 21 50  1  0  0  0
 21 51  1  0  0  0
 21 52  1  0  0  0
 22 32  1  0  0  0
 22 53  1  0  0  0
 22 54  1  0  0  0
 22 55  1  0  0  0
 23 33  1  0  0  0
 23 56  1  0  0  0
 23 57  1  0  0  0
 23 58  1  0  0  0
 24 25  1  0  0  0
 24 26  1  0  0  0
 24 59  1  0  0  0
 24 60  1  0  0  0
 25 30  1  0  0  0
 25 61  1  0  0  0
 25 62  1  0  0  0
 26 34  1  0  0  0
 26 63  1  0  0  0
 26 64  1  0  0  0
 31 65  1  0  0  0
M  END
> <s_m_entry_id>
24

> <s_m_entry_name>
cAbl-erlotinib_nowat-posed-Bosutinib.1

> <s_m_Source_Path>
/Users/albaness/github/kinase-resistance-mutants/sensitivity-analysis/yank/input

> <s_m_Source_File>
cAbl-erlotinib_nowat-posed-Bosutinib.mol2

> <i_m_Source_File_Index>
1

$$$$
~{N}-(2-chloro-6-methyl-phenyl)-2-[[6-[4-(2-hydroxyethyl)piperazin-1-yl]-2-methyl-pyrimidin-4-yl]amino]thiazole-5-carboxamide
                    3D
 Structure written by MMmdl.
 59 62  0  0  1  0            999 V2000
  -39.7133   -6.3152  -59.6528 C   0  0  0  0  0  0
  -39.1990   -6.8688  -58.4804 C   0  0  0  0  0  0
  -40.7124   -6.9841  -60.3601 C   0  0  0  0  0  0
  -43.2032  -16.7192  -56.4972 C   0  0  0  0  0  0
  -41.9658  -12.7685  -57.6177 C   0  0  0  0  0  0
  -39.6837   -8.0912  -58.0152 C   0  0  0  0  0  0
  -40.6828   -8.7600  -58.7224 C   0  0  0  0  0  0
  -41.1972   -8.2064  -59.8948 C   0  0  0  0  0  0
  -42.1098  -11.6788  -56.7848 C   0  0  0  0  0  0
  -43.3995  -18.0766  -56.6503 C   0  0  0  0  0  0
  -43.6155  -16.1886  -55.2919 C   0  0  0  0  0  0
  -44.3148  -18.2293  -54.5751 C   0  0  0  0  0  0
  -42.8902  -13.7815  -55.9061 C   0  0  0  0  0  0
  -41.7585  -10.3140  -56.9898 C   0  0  0  0  0  0
  -41.8803  -18.1282  -58.6380 C   0  0  0  0  0  0
  -43.9043  -19.5174  -58.6075 C   0  0  0  0  0  0
  -42.4261  -17.3635  -59.8468 C   0  0  0  0  0  0
  -44.4230  -18.7460  -59.8295 C   0  0  0  0  0  0
  -39.1117   -8.6571  -56.7556 C   0  0  0  0  0  0
  -44.9320  -19.0677  -53.5078 C   0  0  0  0  0  0
  -43.8213  -17.5064  -61.8101 C   0  0  0  0  0  0
  -44.3424  -18.4884  -62.8526 C   0  0  0  0  0  0
  -42.4124  -13.9752  -57.1154 N   0  0  0  0  0  0
  -43.9544  -18.8649  -55.7063 N   0  0  0  0  0  0
  -44.1774  -16.9171  -54.3051 N   0  0  0  0  0  0
  -42.9979  -18.6498  -57.8502 N   0  0  0  0  0  0
  -43.3117  -18.2283  -60.6452 N   0  0  0  0  0  0
  -41.1664  -10.0016  -58.2383 N   0  0  0  0  0  0
  -43.4318  -14.7981  -55.0944 N   0  0  0  0  0  0
  -41.9231   -9.4291  -56.1152 O   0  0  0  0  0  0
  -44.8588  -17.7627  -63.9610 O   0  0  0  0  0  0
  -42.8343  -12.1729  -55.3109 S   0  0  0  0  0  0
  -42.4351   -8.9980  -60.8045 Cl  0  0  0  0  0  0
  -39.3358   -5.3635  -60.0151 H   0  0  0  0  0  0
  -38.4210   -6.3394  -57.9366 H   0  0  0  0  0  0
  -41.1025   -6.5386  -61.2718 H   0  0  0  0  0  0
  -42.7543  -16.1096  -57.2730 H   0  0  0  0  0  0
  -41.5375  -12.7403  -58.6112 H   0  0  0  0  0  0
  -41.2732  -17.4488  -58.0349 H   0  0  0  0  0  0
  -41.2433  -18.9507  -58.9752 H   0  0  0  0  0  0
  -44.7534  -19.8117  -57.9913 H   0  0  0  0  0  0
  -43.3791  -20.4165  -58.9314 H   0  0  0  0  0  0
  -42.9628  -16.4718  -59.5054 H   0  0  0  0  0  0
  -41.5797  -17.0310  -60.4543 H   0  0  0  0  0  0
  -45.0731  -17.9261  -59.4955 H   0  0  0  0  0  0
  -45.0394  -19.4283  -60.4269 H   0  0  0  0  0  0
  -39.6842   -8.3076  -55.8892 H   0  0  0  0  0  0
  -39.1317   -9.7534  -56.7701 H   0  0  0  0  0  0
  -38.0644   -8.3577  -56.6278 H   0  0  0  0  0  0
  -44.1592  -19.4622  -52.8367 H   0  0  0  0  0  0
  -45.6487  -18.4890  -52.9105 H   0  0  0  0  0  0
  -45.4859  -19.9138  -53.9357 H   0  0  0  0  0  0
  -43.0151  -16.8881  -62.2330 H   0  0  0  0  0  0
  -44.6361  -16.8396  -61.4916 H   0  0  0  0  0  0
  -45.1533  -19.0962  -62.4394 H   0  0  0  0  0  0
  -43.5446  -19.1500  -63.2057 H   0  0  0  0  0  0
  -41.0412  -10.7795  -58.8814 H   0  0  0  0  0  0
  -43.7548  -14.4684  -54.1890 H   0  0  0  0  0  0
  -45.1794  -18.4192  -64.6001 H   0  0  0  0  0  0
  1  2  2  0  0  0
  1  3  1  0  0  0
  1 34  1  0  0  0
  2  6  1  0  0  0
  2 35  1  0  0  0
  3  8  2  0  0  0
  3 36  1  0  0  0
  4 10  2  0  0  0
  4 11  1  0  0  0
  4 37  1  0  0  0
  5  9  2  0  0  0
  5 23  1  0  0  0
  5 38  1  0  0  0
  6  7  2  0  0  0
  6 19  1  0  0  0
  7  8  1  0  0  0
  7 28  1  0  0  0
  8 33  1  0  0  0
  9 14  1  0  0  0
  9 32  1  0  0  0
 10 24  1  0  0  0
 10 26  1  0  0  0
 11 25  2  0  0  0
 11 29  1  0  0  0
 12 20  1  0  0  0
 12 24  2  0  0  0
 12 25  1  0  0  0
 13 23  2  0  0  0
 13 29  1  0  0  0
 13 32  1  0  0  0
 14 28  1  0  0  0
 14 30  2  0  0  0
 15 17  1  0  0  0
 15 26  1  0  0  0
 15 39  1  0  0  0
 15 40  1  0  0  0
 16 18  1  0  0  0
 16 26  1  0  0  0
 16 41  1  0  0  0
 16 42  1  0  0  0
 17 27  1  0  0  0
 17 43  1  0  0  0
 17 44  1  0  0  0
 18 27  1  0  0  0
 18 45  1  0  0  0
 18 46  1  0  0  0
 19 47  1  0  0  0
 19 48  1  0  0  0
 19 49  1  0  0  0
 20 50  1  0  0  0
 20 51  1  0  0  0
 20 52  1  0  0  0
 21 22  1  0  0  0
 21 27  1  0  0  0
 21 53  1  0  0  0
 21 54  1  0  0  0
 22 31  1  0  0  0
 22 55  1  0  0  0
 22 56  1  0  0  0
 28 57  1  0  0  0
 29 58  1  0  0  0
 31 59  1  0  0  0
M  END
> <s_m_entry_id>
25

> <s_m_entry_name>
cAbl-erlotinib_nowat-posed-Dasatinib.1

> <s_m_Source_Path>
/Users/albaness/github/kinase-resistance-mutants/sensitivity-analysis/yank/input

> <s_m_Source_File>
cAbl-erlotinib_nowat-posed-Dasatinib.mol2

> <i_m_Source_File_Index>
1

$$$$
~{N}-(3-ethynylphenyl)-6,7-bis(2-methoxyethoxy)quinazolin-4-amine
                    3D
 Structure written by MMmdl.
 52 54  0  0  1  0            999 V2000
  -38.2785   -6.9720  -56.7099 C   0  0  0  0  0  0
  -39.0114   -7.4909  -57.5061 C   0  0  0  0  0  0
  -41.0113   -8.2755  -60.5496 C   0  0  0  0  0  0
  -40.1432   -7.6161  -59.6817 C   0  0  0  0  0  0
  -41.6358   -9.4586  -60.1514 C   0  0  0  0  0  0
  -40.5247   -9.3300  -58.0184 C   0  0  0  0  0  0
  -42.5626  -13.9763  -57.9550 C   0  0  0  0  0  0
  -43.3284  -14.6958  -55.4019 C   0  0  0  0  0  0
  -42.9269  -11.1779  -55.0044 C   0  0  0  0  0  0
  -39.8982   -8.1457  -58.4154 C   0  0  0  0  0  0
  -42.6834  -12.9820  -56.9671 C   0  0  0  0  0  0
  -43.0696  -13.3527  -55.6686 C   0  0  0  0  0  0
  -41.4038  -10.0010  -58.8784 C   0  0  0  0  0  0
  -42.8397  -15.3161  -57.6823 C   0  0  0  0  0  0
  -43.2192  -15.6863  -56.3875 C   0  0  0  0  0  0
  -42.4396  -11.6129  -57.2018 C   0  0  0  0  0  0
  -45.5649  -18.0093  -60.9363 C   0  0  0  0  0  0
  -46.1347  -19.3882  -55.7973 C   0  0  0  0  0  0
  -42.7533  -15.8949  -59.9971 C   0  0  0  0  0  0
  -43.9882  -17.4107  -54.9129 C   0  0  0  0  0  0
  -43.4618  -16.9592  -60.8095 C   0  0  0  0  0  0
  -44.0039  -18.9344  -54.8309 C   0  0  0  0  0  0
  -43.1923  -12.4531  -54.6847 N   0  0  0  0  0  0
  -42.5586  -10.7077  -56.2044 N   0  0  0  0  0  0
  -42.0647  -11.1835  -58.4992 N   0  0  0  0  0  0
  -42.7628  -16.3102  -58.6236 O   0  0  0  0  0  0
  -43.4538  -17.0236  -56.1814 O   0  0  0  0  0  0
  -44.8515  -16.8701  -60.4880 O   0  0  0  0  0  0
  -44.7274  -19.5444  -55.8970 O   0  0  0  0  0  0
  -37.6345   -6.5273  -55.9887 H   0  0  0  0  0  0
  -41.2064   -7.8678  -61.5372 H   0  0  0  0  0  0
  -39.6670   -6.6945  -60.0044 H   0  0  0  0  0  0
  -42.3139   -9.9533  -60.8434 H   0  0  0  0  0  0
  -40.3164   -9.7312  -57.0287 H   0  0  0  0  0  0
  -42.2459  -13.6836  -58.9510 H   0  0  0  0  0  0
  -43.6237  -14.9516  -54.3870 H   0  0  0  0  0  0
  -43.0215  -10.4493  -54.2099 H   0  0  0  0  0  0
  -46.6267  -17.8556  -60.7286 H   0  0  0  0  0  0
  -45.2256  -18.8930  -60.3886 H   0  0  0  0  0  0
  -45.4292  -18.1509  -62.0122 H   0  0  0  0  0  0
  -46.5998  -20.0300  -56.5508 H   0  0  0  0  0  0
  -46.4226  -18.3548  -56.0065 H   0  0  0  0  0  0
  -46.4956  -19.6939  -54.8107 H   0  0  0  0  0  0
  -43.3014  -14.9592  -60.1553 H   0  0  0  0  0  0
  -41.7128  -15.7882  -60.3198 H   0  0  0  0  0  0
  -43.3544  -17.0480  -54.0959 H   0  0  0  0  0  0
  -45.0001  -17.0051  -54.8082 H   0  0  0  0  0  0
  -43.0769  -17.9533  -60.5603 H   0  0  0  0  0  0
  -43.3357  -16.7607  -61.8789 H   0  0  0  0  0  0
  -44.4009  -19.2693  -53.8654 H   0  0  0  0  0  0
  -42.9756  -19.3034  -54.9083 H   0  0  0  0  0  0
  -42.5403  -11.6610  -59.2580 H   0  0  0  0  0  0
  1  2  3  0  0  0
  1 30  1  0  0  0
  2 10  1  0  0  0
  3  4  2  0  0  0
  3  5  1  0  0  0
  3 31  1  0  0  0
  4 10  1  0  0  0
  4 32  1  0  0  0
  5 13  2  0  0  0
  5 33  1  0  0  0
  6 10  2  0  0  0
  6 13  1  0  0  0
  6 34  1  0  0  0
  7 11  2  0  0  0
  7 14  1  0  0  0
  7 35  1  0  0  0
  8 12  2  0  0  0
  8 15  1  0  0  0
  8 36  1  0  0  0
  9 23  2  0  0  0
  9 24  1  0  0  0
  9 37  1  0  0  0
 11 12  1  0  0  0
 11 16  1  0  0  0
 12 23  1  0  0  0
 13 25  1  0  0  0
 14 15  2  0  0  0
 14 26  1  0  0  0
 15 27  1  0  0  0
 16 24  2  0  0  0
 16 25  1  0  0  0
 17 28  1  0  0  0
 17 38  1  0  0  0
 17 39  1  0  0  0
 17 40  1  0  0  0
 18 29  1  0  0  0
 18 41  1  0  0  0
 18 42  1  0  0  0
 18 43  1  0  0  0
 19 21  1  0  0  0
 19 26  1  0  0  0
 19 44  1  0  0  0
 19 45  1  0  0  0
 20 22  1  0  0  0
 20 27  1  0  0  0
 20 46  1  0  0  0
 20 47  1  0  0  0
 21 28  1  0  0  0
 21 48  1  0  0  0
 21 49  1  0  0  0
 22 29  1  0  0  0
 22 50  1  0  0  0
 22 51  1  0  0  0
 25 52  1  0  0  0
M  END
> <s_m_entry_id>
26

> <s_m_entry_name>
cAbl-erlotinib_nowat-posed-Erlotinib.1

> <s_m_Source_Path>
/Users/albaness/github/kinase-resistance-mutants/sensitivity-analysis/yank/input

> <s_m_Source_File>
cAbl-erlotinib_nowat-posed-Erlotinib.mol2

> <i_m_Source_File_Index>
1

$$$$
~{N}-(3-chloro-4-fluoro-phenyl)-7-methoxy-6-(3-morpholinopropoxy)quinazolin-4-amine
                    3D
 Structure written by MMmdl.
 55 58  0  0  1  0            999 V2000
  -41.6991   -9.6139  -60.0916 C   0  0  0  0  0  0
  -41.1019   -8.4287  -60.5184 C   0  0  0  0  0  0
  -42.5871  -14.1128  -57.8368 C   0  0  0  0  0  0
  -43.3873  -14.7908  -55.2794 C   0  0  0  0  0  0
  -40.5637   -9.4337  -57.9669 C   0  0  0  0  0  0
  -42.9593  -11.2691  -54.9230 C   0  0  0  0  0  0
  -42.7114  -13.1019  -56.8628 C   0  0  0  0  0  0
  -43.1093  -13.4536  -55.5608 C   0  0  0  0  0  0
  -41.4423  -10.1312  -58.8100 C   0  0  0  0  0  0
  -42.8649  -15.4445  -57.5417 C   0  0  0  0  0  0
  -43.2792  -15.7912  -56.2530 C   0  0  0  0  0  0
  -40.2399   -7.7525  -59.6644 C   0  0  0  0  0  0
  -39.9655   -8.2488  -58.3950 C   0  0  0  0  0  0
  -42.4630  -11.7338  -57.1114 C   0  0  0  0  0  0
  -44.4712  -17.6438  -61.5486 C   0  0  0  0  0  0
  -45.9494  -16.1967  -60.3184 C   0  0  0  0  0  0
  -45.1682  -18.8435  -60.9233 C   0  0  0  0  0  0
  -46.6414  -17.4297  -59.7463 C   0  0  0  0  0  0
  -44.0233  -17.5020  -54.7644 C   0  0  0  0  0  0
  -42.2493  -15.6429  -60.7874 C   0  0  0  0  0  0
  -43.7514  -15.3844  -60.9684 C   0  0  0  0  0  0
  -41.8058  -16.3507  -59.4908 C   0  0  0  0  0  0
  -43.2332  -12.5395  -54.5897 N   0  0  0  0  0  0
  -42.5835  -10.8149  -56.1264 N   0  0  0  0  0  0
  -44.5544  -16.5397  -60.5940 N   0  0  0  0  0  0
  -42.0838  -11.3200  -58.4124 N   0  0  0  0  0  0
  -46.5354  -18.5315  -60.6502 O   0  0  0  0  0  0
  -43.5448  -17.1216  -56.0485 O   0  0  0  0  0  0
  -42.7899  -16.4531  -58.4616 O   0  0  0  0  0  0
  -39.6750   -6.6113  -60.0822 F   0  0  0  0  0  0
  -38.8921   -7.4087  -57.3444 Cl  0  0  0  0  0  0
  -42.3768  -10.1327  -60.7663 H   0  0  0  0  0  0
  -41.3119   -8.0370  -61.5086 H   0  0  0  0  0  0
  -42.2778  -13.8420  -58.8388 H   0  0  0  0  0  0
  -43.6998  -15.0371  -54.2668 H   0  0  0  0  0  0
  -40.3383   -9.8160  -56.9743 H   0  0  0  0  0  0
  -43.0546  -10.5300  -54.1381 H   0  0  0  0  0  0
  -43.4327  -17.9157  -61.7618 H   0  0  0  0  0  0
  -44.9527  -17.3699  -62.4957 H   0  0  0  0  0  0
  -46.4522  -15.8647  -61.2349 H   0  0  0  0  0  0
  -46.0137  -15.3878  -59.5812 H   0  0  0  0  0  0
  -45.1461  -19.6901  -61.6151 H   0  0  0  0  0  0
  -44.6681  -19.1556  -59.9970 H   0  0  0  0  0  0
  -46.2137  -17.7129  -58.7759 H   0  0  0  0  0  0
  -47.7048  -17.2234  -59.5916 H   0  0  0  0  0  0
  -44.2002  -18.5818  -54.7824 H   0  0  0  0  0  0
  -44.9763  -17.0131  -54.5373 H   0  0  0  0  0  0
  -43.2767  -17.3011  -53.9892 H   0  0  0  0  0  0
  -41.8613  -16.2150  -61.6401 H   0  0  0  0  0  0
  -41.7291  -14.6787  -60.8527 H   0  0  0  0  0  0
  -44.0179  -14.5294  -60.3361 H   0  0  0  0  0  0
  -43.9562  -15.0711  -61.9999 H   0  0  0  0  0  0
  -41.5712  -17.3897  -59.7536 H   0  0  0  0  0  0
  -40.8677  -15.9319  -59.1064 H   0  0  0  0  0  0
  -42.5624  -11.8068  -59.1636 H   0  0  0  0  0  0
  1  2  2  0  0  0
  1  9  1  0  0  0
  1 32  1  0  0  0
  2 12  1  0  0  0
  2 33  1  0  0  0
  3  7  2  0  0  0
  3 10  1  0  0  0
  3 34  1  0  0  0
  4  8  2  0  0  0
  4 11  1  0  0  0
  4 35  1  0  0  0
  5  9  2  0  0  0
  5 13  1  0  0  0
  5 36  1  0  0  0
  6 23  2  0  0  0
  6 24  1  0  0  0
  6 37  1  0  0  0
  7  8  1  0  0  0
  7 14  1  0  0  0
  8 23  1  0  0  0
  9 26  1  0  0  0
 10 11  2  0  0  0
 10 29  1  0  0  0
 11 28  1  0  0  0
 12 13  2  0  0  0
 12 30  1  0  0  0
 13 31  1  0  0  0
 14 24  2  0  0  0
 14 26  1  0  0  0
 15 17  1  0  0  0
 15 25  1  0  0  0
 15 38  1  0  0  0
 15 39  1  0  0  0
 16 18  1  0  0  0
 16 25  1  0  0  0
 16 40  1  0  0  0
 16 41  1  0  0  0
 17 27  1  0  0  0
 17 42  1  0  0  0
 17 43  1  0  0  0
 18 27  1  0  0  0
 18 44  1  0  0  0
 18 45  1  0  0  0
 19 28  1  0  0  0
 19 46  1  0  0  0
 19 47  1  0  0  0
 19 48  1  0  0  0
 20 21  1  0  0  0
 20 22  1  0  0  0
 20 49  1  0  0  0
 20 50  1  0  0  0
 21 25  1  0  0  0
 21 51  1  0  0  0
 21 52  1  0  0  0
 22 29  1  0  0  0
 22 53  1  0  0  0
 22 54  1  0  0  0
 26 55  1  0  0  0
M  END
> <s_m_entry_id>
27

> <s_m_entry_name>
cAbl-erlotinib_nowat-posed-Gefitinib.1

> <s_m_Source_Path>
/Users/albaness/github/kinase-resistance-mutants/sensitivity-analysis/yank/input

> <s_m_Source_File>
cAbl-erlotinib_nowat-posed-Gefitinib.mol2

> <i_m_Source_File_Index>
1

$$$$
4-[(4-methylpiperazin-1-yl)methyl]-~{N}-[4-methyl-3-[[4-(3-pyridyl)pyrimidin-2-yl]amino]phenyl]benzamide
                    3D
 Structure written by MMmdl.
 68 72  0  0  1  0            999 V2000
  -45.0401  -12.6873  -64.3982 C   0  0  0  0  0  0
  -44.1761  -11.5979  -64.3971 C   0  0  0  0  0  0
  -43.2037  -14.6616  -55.5921 C   0  0  0  0  0  0
  -42.6565  -14.6957  -57.9451 C   0  0  0  0  0  0
  -43.2742  -16.0546  -55.5883 C   0  0  0  0  0  0
  -42.7270  -16.0888  -57.9412 C   0  0  0  0  0  0
  -41.3702   -8.3675  -57.1503 C   0  0  0  0  0  0
  -41.6732   -9.7097  -56.9223 C   0  0  0  0  0  0
  -41.9019   -9.7400  -64.4998 C   0  0  0  0  0  0
  -41.3510  -10.1813  -59.2698 C   0  0  0  0  0  0
  -44.9487  -13.5886  -63.3499 C   0  0  0  0  0  0
  -41.0345   -8.6787  -64.3403 C   0  0  0  0  0  0
  -43.2484  -12.4021  -62.3602 C   0  0  0  0  0  0
  -43.2600  -11.4453  -63.3623 C   0  0  0  0  0  0
  -42.8949  -13.9821  -56.7705 C   0  0  0  0  0  0
  -43.0359  -16.7682  -56.7628 C   0  0  0  0  0  0
  -41.0576   -7.9320  -58.4381 C   0  0  0  0  0  0
  -41.6636  -10.6167  -57.9820 C   0  0  0  0  0  0
  -41.0480   -8.8390  -59.4979 C   0  0  0  0  0  0
  -42.3498  -10.3255  -63.3333 C   0  0  0  0  0  0
  -41.1359   -8.8707  -62.0775 C   0  0  0  0  0  0
  -42.8206  -12.5296  -56.7755 C   0  0  0  0  0  0
  -45.4764  -20.6715  -58.4526 C   0  0  0  0  0  0
  -46.7684  -19.1191  -57.1347 C   0  0  0  0  0  0
  -44.1902  -20.1575  -57.7966 C   0  0  0  0  0  0
  -45.4820  -18.6063  -56.4782 C   0  0  0  0  0  0
  -40.7367   -6.4889  -58.6537 C   0  0  0  0  0  0
  -47.8483  -21.0074  -58.1757 C   0  0  0  0  0  0
  -43.1108  -18.2677  -56.7579 C   0  0  0  0  0  0
  -44.0719  -13.4737  -62.3272 N   0  0  0  0  0  0
  -40.6289   -8.2159  -63.1395 N   0  0  0  0  0  0
  -41.9857   -9.9151  -62.1007 N   0  0  0  0  0  0
  -46.6219  -20.5204  -57.5471 N   0  0  0  0  0  0
  -44.3374  -18.7561  -57.3850 N   0  0  0  0  0  0
  -40.7347   -8.4150  -60.8082 N   0  0  0  0  0  0
  -41.9722  -11.9807  -57.7496 N   0  0  0  0  0  0
  -43.4398  -11.8430  -55.9510 O   0  0  0  0  0  0
  -45.7631  -12.8267  -65.1936 H   0  0  0  0  0  0
  -44.2279  -10.8764  -65.2087 H   0  0  0  0  0  0
  -43.3910  -14.1149  -54.6715 H   0  0  0  0  0  0
  -42.4152  -14.1769  -58.8691 H   0  0  0  0  0  0
  -43.5152  -16.5758  -54.6656 H   0  0  0  0  0  0
  -42.5394  -16.6369  -58.8609 H   0  0  0  0  0  0
  -41.3799   -7.6686  -56.3181 H   0  0  0  0  0  0
  -41.9150  -10.0385  -55.9146 H   0  0  0  0  0  0
  -42.2023  -10.0801  -65.4831 H   0  0  0  0  0  0
  -41.3439  -10.8889  -60.0964 H   0  0  0  0  0  0
  -45.6001  -14.4555  -63.3046 H   0  0  0  0  0  0
  -40.6293   -8.1551  -65.1996 H   0  0  0  0  0  0
  -42.5581  -12.3401  -61.5237 H   0  0  0  0  0  0
  -45.6491  -20.1355  -59.3958 H   0  0  0  0  0  0
  -45.3373  -21.7308  -58.7006 H   0  0  0  0  0  0
  -47.5851  -19.0302  -56.4081 H   0  0  0  0  0  0
  -47.0240  -18.4826  -57.9928 H   0  0  0  0  0  0
  -43.9340  -20.7934  -56.9382 H   0  0  0  0  0  0
  -43.3735  -20.2464  -58.5233 H   0  0  0  0  0  0
  -45.6210  -17.5473  -56.2290 H   0  0  0  0  0  0
  -45.3087  -19.1436  -55.5358 H   0  0  0  0  0  0
  -39.6610   -6.3174  -58.5330 H   0  0  0  0  0  0
  -41.0326   -6.1634  -59.6584 H   0  0  0  0  0  0
  -41.2749   -5.8529  -57.9402 H   0  0  0  0  0  0
  -48.6932  -20.8896  -57.4922 H   0  0  0  0  0  0
  -47.7475  -22.0656  -58.4315 H   0  0  0  0  0  0
  -48.0539  -20.4440  -59.0898 H   0  0  0  0  0  0
  -42.2610  -18.6986  -57.2985 H   0  0  0  0  0  0
  -43.0785  -18.6595  -55.7358 H   0  0  0  0  0  0
  -40.0943   -7.6281  -60.8366 H   0  0  0  0  0  0
  -41.5199  -12.6484  -58.3692 H   0  0  0  0  0  0
  1  2  2  0  0  0
  1 11  1  0  0  0
  1 38  1  0  0  0
  2 14  1  0  0  0
  2 39  1  0  0  0
  3  5  2  0  0  0
  3 15  1  0  0  0
  3 40  1  0  0  0
  4  6  1  0  0  0
  4 15  2  0  0  0
  4 41  1  0  0  0
  5 16  1  0  0  0
  5 42  1  0  0  0
  6 16  2  0  0  0
  6 43  1  0  0  0
  7  8  2  0  0  0
  7 17  1  0  0  0
  7 44  1  0  0  0
  8 18  1  0  0  0
  8 45  1  0  0  0
  9 12  2  0  0  0
  9 20  1  0  0  0
  9 46  1  0  0  0
 10 18  2  0  0  0
 10 19  1  0  0  0
 10 47  1  0  0  0
 11 30  2  0  0  0
 11 48  1  0  0  0
 12 31  1  0  0  0
 12 49  1  0  0  0
 13 14  2  0  0  0
 13 30  1  0  0  0
 13 50  1  0  0  0
 14 20  1  0  0  0
 15 22  1  0  0  0
 16 29  1  0  0  0
 17 19  2  0  0  0
 17 27  1  0  0  0
 18 36  1  0  0  0
 19 35  1  0  0  0
 20 32  2  0  0  0
 21 31  2  0  0  0
 21 32  1  0  0  0
 21 35  1  0  0  0
 22 36  1  0  0  0
 22 37  2  0  0  0
 23 25  1  0  0  0
 23 33  1  0  0  0
 23 51  1  0  0  0
 23 52  1  0  0  0
 24 26  1  0  0  0
 24 33  1  0  0  0
 24 53  1  0  0  0
 24 54  1  0  0  0
 25 34  1  0  0  0
 25 55  1  0  0  0
 25 56  1  0  0  0
 26 34  1  0  0  0
 26 57  1  0  0  0
 26 58  1  0  0  0
 27 59  1  0  0  0
 27 60  1  0  0  0
 27 61  1  0  0  0
 28 33  1  0  0  0
 28 62  1  0  0  0
 28 63  1  0  0  0
 28 64  1  0  0  0
 29 34  1  0  0  0
 29 65  1  0  0  0
 29 66  1  0  0  0
 35 67  1  0  0  0
 36 68  1  0  0  0
M  END
> <s_m_entry_id>
28

> <s_m_entry_name>
cAbl-erlotinib_nowat-posed-Imatinib.1

> <s_m_Source_Path>
/Users/albaness/github/kinase-resistance-mutants/sensitivity-analysis/yank/input

> <s_m_Source_File>
cAbl-erlotinib_nowat-posed-Imatinib.mol2

> <i_m_Source_File_Index>
1

$$$$
4-methyl-~{N}-[3-(4-methylimidazol-1-yl)-5-(trifluoromethyl)phenyl]-3-[[4-(3-pyridyl)pyrimidin-2-yl]amino]benzamide
                    3D
 Structure written by MMmdl.
 61 65  0  0  1  0            999 V2000
  -40.0104  -13.8426  -61.5602 C   0  0  0  0  0  0
  -40.8585  -14.7432  -60.9255 C   0  0  0  0  0  0
  -42.8707  -13.7985  -55.0637 C   0  0  0  0  0  0
  -43.1812  -15.0769  -54.6002 C   0  0  0  0  0  0
  -43.2901  -17.3789  -61.7321 C   0  0  0  0  0  0
  -43.3975  -14.4880  -57.3185 C   0  0  0  0  0  0
  -40.9761   -8.7448  -60.4354 C   0  0  0  0  0  0
  -41.1944   -9.9035  -58.3268 C   0  0  0  0  0  0
  -41.9957  -10.9338  -60.3599 C   0  0  0  0  0  0
  -40.1975  -13.6199  -62.9149 C   0  0  0  0  0  0
  -44.1322  -18.2073  -61.0188 C   0  0  0  0  0  0
  -41.9585  -15.0927  -63.0050 C   0  0  0  0  0  0
  -41.4246   -8.7528  -63.2927 C   0  0  0  0  0  0
  -42.3531  -10.7502  -63.2221 C   0  0  0  0  0  0
  -41.8538  -15.3846  -61.6546 C   0  0  0  0  0  0
  -42.9789  -13.5040  -56.4228 C   0  0  0  0  0  0
  -43.5998  -16.0609  -55.4958 C   0  0  0  0  0  0
  -40.7818   -8.7876  -59.0549 C   0  0  0  0  0  0
  -41.5831   -9.8178  -61.0880 C   0  0  0  0  0  0
  -43.7080  -15.7664  -56.8550 C   0  0  0  0  0  0
  -41.8014  -10.9766  -58.9793 C   0  0  0  0  0  0
  -42.7492  -16.3249  -61.0244 C   0  0  0  0  0  0
  -41.8153   -9.1702  -64.5432 C   0  0  0  0  0  0
  -43.8402  -16.9670  -59.1364 C   0  0  0  0  0  0
  -42.6546  -12.1711  -56.9060 C   0  0  0  0  0  0
  -43.9227  -17.4226  -54.9721 C   0  0  0  0  0  0
  -41.6778   -8.4600  -65.8237 C   0  0  0  0  0  0
  -40.1323   -7.6407  -58.3573 C   0  0  0  0  0  0
  -41.1531  -14.2239  -63.6563 N   0  0  0  0  0  0
  -44.4304  -18.0302  -59.7149 N   0  0  0  0  0  0
  -42.3929  -10.4142  -64.4924 N   0  0  0  0  0  0
  -43.0038  -16.0880  -59.7207 N   0  0  0  0  0  0
  -41.7760   -9.7751  -62.4569 N   0  0  0  0  0  0
  -44.1283  -16.7512  -57.7761 N   0  0  0  0  0  0
  -42.2203  -12.1110  -58.2392 N   0  0  0  0  0  0
  -42.7279  -11.1764  -56.1712 O   0  0  0  0  0  0
  -39.7803   -6.6194  -59.1934 F   0  0  0  0  0  0
  -40.9209   -7.0635  -57.4029 F   0  0  0  0  0  0
  -38.9830   -7.9997  -57.7143 F   0  0  0  0  0  0
  -39.2280  -13.3301  -61.0125 H   0  0  0  0  0  0
  -40.7322  -14.9354  -59.8630 H   0  0  0  0  0  0
  -42.5458  -13.0392  -54.3570 H   0  0  0  0  0  0
  -43.0946  -15.2957  -53.5391 H   0  0  0  0  0  0
  -43.0772  -17.5570  -62.7788 H   0  0  0  0  0  0
  -43.4803  -14.2584  -58.3788 H   0  0  0  0  0  0
  -40.6527   -7.8721  -60.9992 H   0  0  0  0  0  0
  -41.0411   -9.9352  -57.2504 H   0  0  0  0  0  0
  -42.4699  -11.7720  -60.8667 H   0  0  0  0  0  0
  -39.5618  -12.9268  -63.4566 H   0  0  0  0  0  0
  -44.6049  -19.0624  -61.4903 H   0  0  0  0  0  0
  -42.7150  -15.5588  -63.6298 H   0  0  0  0  0  0
  -40.9457   -7.8482  -62.9420 H   0  0  0  0  0  0
  -42.7250  -11.6771  -62.8054 H   0  0  0  0  0  0
  -44.9818  -17.4817  -54.6971 H   0  0  0  0  0  0
  -43.7118  -18.1950  -55.7216 H   0  0  0  0  0  0
  -43.3175  -17.6604  -54.0888 H   0  0  0  0  0  0
  -40.7195   -8.7007  -66.3167 H   0  0  0  0  0  0
  -42.4871   -8.7135  -66.5326 H   0  0  0  0  0  0
  -41.7198   -7.3622  -65.7006 H   0  0  0  0  0  0
  -44.7624  -17.4352  -57.3760 H   0  0  0  0  0  0
  -42.2040  -12.9963  -58.7395 H   0  0  0  0  0  0
  1  2  2  0  0  0
  1 10  1  0  0  0
  1 40  1  0  0  0
  2 15  1  0  0  0
  2 41  1  0  0  0
  3  4  2  0  0  0
  3 16  1  0  0  0
  3 42  1  0  0  0
  4 17  1  0  0  0
  4 43  1  0  0  0
  5 11  2  0  0  0
  5 22  1  0  0  0
  5 44  1  0  0  0
  6 16  2  0  0  0
  6 20  1  0  0  0
  6 45  1  0  0  0
  7 18  2  0  0  0
  7 19  1  0  0  0
  7 46  1  0  0  0
  8 18  1  0  0  0
  8 21  2  0  0  0
  8 47  1  0  0  0
  9 19  2  0  0  0
  9 21  1  0  0  0
  9 48  1  0  0  0
 10 29  2  0  0  0
 10 49  1  0  0  0
 11 30  1  0  0  0
 11 50  1  0  0  0
 12 15  2  0  0  0
 12 29  1  0  0  0
 12 51  1  0  0  0
 13 23  2  0  0  0
 13 33  1  0  0  0
 13 52  1  0  0  0
 14 31  2  0  0  0
 14 33  1  0  0  0
 14 53  1  0  0  0
 15 22  1  0  0  0
 16 25  1  0  0  0
 17 20  2  0  0  0
 17 26  1  0  0  0
 18 28  1  0  0  0
 19 33  1  0  0  0
 20 34  1  0  0  0
 21 35  1  0  0  0
 22 32  2  0  0  0
 23 27  1  0  0  0
 23 31  1  0  0  0
 24 30  2  0  0  0
 24 32  1  0  0  0
 24 34  1  0  0  0
 25 35  1  0  0  0
 25 36  2  0  0  0
 26 54  1  0  0  0
 26 55  1  0  0  0
 26 56  1  0  0  0
 27 57  1  0  0  0
 27 58  1  0  0  0
 27 59  1  0  0  0
 28 37  1  0  0  0
 28 38  1  0  0  0
 28 39  1  0  0  0
 34 60  1  0  0  0
 35 61  1  0  0  0
M  END
> <s_m_entry_id>
29

> <s_m_entry_name>
cAbl-erlotinib_nowat-posed-Nilotinib.1

> <s_m_Source_Path>
/Users/albaness/github/kinase-resistance-mutants/sensitivity-analysis/yank/input

> <s_m_Source_File>
cAbl-erlotinib_nowat-posed-Nilotinib.mol2

> <i_m_Source_File_Index>
1

$$$$
3-(2-imidazo[1,2-b]pyridazin-3-ylethynyl)-4-methyl-~{N}-[4-[(4-methylpiperazin-1-yl)methyl]-3-(trifluoromethyl)phenyl]benzamide
                    3D
 Structure written by MMmdl.
 66 70  0  0  1  0            999 V2000
  -41.9279   -9.3376  -62.5461 C   0  0  0  0  0  0
  -42.1727   -9.2609  -63.7198 C   0  0  0  0  0  0
  -41.0852   -9.6550  -58.4224 C   0  0  0  0  0  0
  -40.7803   -8.4746  -59.1001 C   0  0  0  0  0  0
  -42.5388  -16.7777  -59.3696 C   0  0  0  0  0  0
  -42.2425  -15.4687  -59.7494 C   0  0  0  0  0  0
  -41.9413  -10.6095  -60.4701 C   0  0  0  0  0  0
  -42.6365  -14.7227  -57.4855 C   0  0  0  0  0  0
  -43.6297   -8.7646  -65.7223 C   0  0  0  0  0  0
  -41.6364   -9.4291  -61.1478 C   0  0  0  0  0  0
  -42.4642   -9.1698  -65.1172 C   0  0  0  0  0  0
  -41.6656  -10.7225  -59.1074 C   0  0  0  0  0  0
  -41.0559   -8.3616  -60.4627 C   0  0  0  0  0  0
  -42.8841  -17.0592  -58.0478 C   0  0  0  0  0  0
  -42.9329  -16.0317  -57.1057 C   0  0  0  0  0  0
  -42.2913  -14.4412  -58.8073 C   0  0  0  0  0  0
  -42.3007   -9.2470  -67.3253 C   0  0  0  0  0  0
  -41.6123   -9.5005  -68.5348 C   0  0  0  0  0  0
  -40.3507   -9.9445  -68.4957 C   0  0  0  0  0  0
  -39.7528  -10.1432  -67.1537 C   0  0  0  0  0  0
  -41.9865  -11.9685  -58.3904 C   0  0  0  0  0  0
  -46.0123  -20.7850  -58.6642 C   0  0  0  0  0  0
  -46.9618  -18.7587  -57.7649 C   0  0  0  0  0  0
  -44.6257  -20.3515  -58.1762 C   0  0  0  0  0  0
  -45.5752  -18.3263  -57.2760 C   0  0  0  0  0  0
  -40.7164   -7.0812  -61.1561 C   0  0  0  0  0  0
  -48.3884  -20.6334  -58.2806 C   0  0  0  0  0  0
  -43.1997  -18.4758  -57.6630 C   0  0  0  0  0  0
  -43.2980  -16.3098  -55.6845 C   0  0  0  0  0  0
  -43.5227   -8.8145  -67.0887 N   0  0  0  0  0  0
  -40.3342   -9.9283  -66.0147 N   0  0  0  0  0  0
  -41.6139   -9.4786  -66.1459 N   0  0  0  0  0  0
  -47.0666  -20.2223  -57.8115 N   0  0  0  0  0  0
  -44.5218  -18.8878  -58.1303 N   0  0  0  0  0  0
  -41.9931  -13.1320  -59.1863 N   0  0  0  0  0  0
  -42.2582  -11.9566  -57.1917 O   0  0  0  0  0  0
  -43.2971  -15.1972  -54.8934 F   0  0  0  0  0  0
  -44.5421  -16.8521  -55.5378 F   0  0  0  0  0  0
  -42.4414  -17.1869  -55.0864 F   0  0  0  0  0  0
  -40.8647   -9.7319  -57.3606 H   0  0  0  0  0  0
  -40.3282   -7.6491  -58.5566 H   0  0  0  0  0  0
  -42.4990  -17.5713  -60.1112 H   0  0  0  0  0  0
  -41.9758  -15.2614  -60.7825 H   0  0  0  0  0  0
  -42.3939  -11.4461  -60.9995 H   0  0  0  0  0  0
  -42.6749  -13.9219  -56.7500 H   0  0  0  0  0  0
  -44.5442   -8.4372  -65.2478 H   0  0  0  0  0  0
  -42.1131   -9.3327  -69.4816 H   0  0  0  0  0  0
  -39.7650  -10.1584  -69.3791 H   0  0  0  0  0  0
  -38.7136  -10.5102  -67.1574 H   0  0  0  0  0  0
  -46.1483  -20.4772  -59.7099 H   0  0  0  0  0  0
  -46.0600  -21.8804  -58.6382 H   0  0  0  0  0  0
  -47.7120  -18.3555  -57.0738 H   0  0  0  0  0  0
  -47.1585  -18.3200  -58.7526 H   0  0  0  0  0  0
  -44.4283  -20.7897  -57.1884 H   0  0  0  0  0  0
  -43.8756  -20.7547  -58.8674 H   0  0  0  0  0  0
  -45.5275  -17.2308  -57.3008 H   0  0  0  0  0  0
  -45.4390  -18.6356  -56.2307 H   0  0  0  0  0  0
  -39.6954   -7.1242  -61.5510 H   0  0  0  0  0  0
  -41.4059   -6.8869  -61.9860 H   0  0  0  0  0  0
  -40.7919   -6.2290  -60.4702 H   0  0  0  0  0  0
  -49.1640  -20.2085  -57.6382 H   0  0  0  0  0  0
  -48.4739  -21.7233  -58.2619 H   0  0  0  0  0  0
  -48.5507  -20.2867  -59.3047 H   0  0  0  0  0  0
  -42.4618  -19.1648  -58.0882 H   0  0  0  0  0  0
  -43.1744  -18.6026  -56.5756 H   0  0  0  0  0  0
  -41.7461  -12.9986  -60.1737 H   0  0  0  0  0  0
  1  2  3  0  0  0
  1 10  1  0  0  0
  2 11  1  0  0  0
  3  4  2  0  0  0
  3 12  1  0  0  0
  3 40  1  0  0  0
  4 13  1  0  0  0
  4 41  1  0  0  0
  5  6  2  0  0  0
  5 14  1  0  0  0
  5 42  1  0  0  0
  6 16  1  0  0  0
  6 43  1  0  0  0
  7 10  1  0  0  0
  7 12  2  0  0  0
  7 44  1  0  0  0
  8 15  1  0  0  0
  8 16  2  0  0  0
  8 45  1  0  0  0
  9 11  2  0  0  0
  9 30  1  0  0  0
  9 46  1  0  0  0
 10 13  2  0  0  0
 11 32  1  0  0  0
 12 21  1  0  0  0
 13 26  1  0  0  0
 14 15  2  0  0  0
 14 28  1  0  0  0
 15 29  1  0  0  0
 16 35  1  0  0  0
 17 18  1  0  0  0
 17 30  2  0  0  0
 17 32  1  0  0  0
 18 19  2  0  0  0
 18 47  1  0  0  0
 19 20  1  0  0  0
 19 48  1  0  0  0
 20 31  2  0  0  0
 20 49  1  0  0  0
 21 35  1  0  0  0
 21 36  2  0  0  0
 22 24  1  0  0  0
 22 33  1  0  0  0
 22 50  1  0  0  0
 22 51  1  0  0  0
 23 25  1  0  0  0
 23 33  1  0  0  0
 23 52  1  0  0  0
 23 53  1  0  0  0
 24 34  1  0  0  0
 24 54  1  0  0  0
 24 55  1  0  0  0
 25 34  1  0  0  0
 25 56  1  0  0  0
 25 57  1  0  0  0
 26 58  1  0  0  0
 26 59  1  0  0  0
 26 60  1  0  0  0
 27 33  1  0  0  0
 27 61  1  0  0  0
 27 62  1  0  0  0
 27 63  1  0  0  0
 28 34  1  0  0  0
 28 64  1  0  0  0
 28 65  1  0  0  0
 29 37  1  0  0  0
 29 38  1  0  0  0
 29 39  1  0  0  0
 31 32  1  0  0  0
 35 66  1  0  0  0
M  END
> <s_m_entry_id>
30

> <s_m_entry_name>
cAbl-erlotinib_nowat-posed-Ponatinib.1

> <s_m_Source_Path>
/Users/albaness/github/kinase-resistance-mutants/sensitivity-analysis/yank/input

> <s_m_Source_File>
cAbl-erlotinib_nowat-posed-Ponatinib.mol2

> <i_m_Source_File_Index>
1

$$$$
